95
O1C(C(O[B]1=C([C](COC)[Cu][P](C1CCCCC1)(C1CCCCC1)C1CCCCC1)c1ccccc1)(C)C)(C)C
O          3.53838       -1.87147       -0.05606
O          1.27146       -1.54065        0.02388
C          2.96211       -3.13100        0.35073
C          1.47294       -2.97193       -0.11430
C          3.73101       -4.26568       -0.31993
C          3.10414       -3.21507        1.87694
C          1.26751       -3.30616       -1.59747
C          0.45965       -3.72581        0.74131
B          2.52406       -0.93699       -0.13163
C          1.93946        2.89868       -0.77806
C          2.77693        0.56715       -0.37901
C          1.71521        1.41083       -0.56461
Cu        -0.09771        0.79466       -0.46601
P         -2.20138        0.22209       -0.03486
C         -3.53075        1.42542       -0.59192
C         -5.83284        2.45818       -0.31752
C         -3.97917        3.79001       -1.41535
C         -5.24344        3.85765       -0.54606
C         -2.93544        2.83340       -0.81873
C         -4.79193        1.50450        0.29362
C         -2.67207       -1.42127       -0.78219
C         -4.31180       -3.33180       -1.07696
C         -2.63675       -2.81379       -2.90588
C         -4.04780       -3.33163       -2.58996
C         -2.39577       -1.42083       -2.30081
C         -4.08992       -1.93433       -0.47403
C         -2.37677        0.01866        1.81563
C         -1.53668       -1.31617        3.82235
C         -1.91366        1.16893        4.04632
C         -1.05999       -0.02370        4.49765
C         -1.89785        1.31104        2.51706
C         -1.54103       -1.18978        2.29080
H          3.77835       -4.12910       -1.40253
H          3.26242       -5.23327       -0.10501
H          4.75700       -4.28930        0.06064
H          2.53470       -2.41647        2.36339
H          4.15888       -3.08696        2.13787
H          2.76217       -4.17983        2.26667
H          0.27823       -2.95235       -1.90293
H          1.32742       -4.38358       -1.78456
H          2.01277       -2.79937       -2.21794
H         -0.54846       -3.60202        0.33353
H          0.45429       -3.36626        1.77201
H          0.69018       -4.79735        0.74435
H          0.99801        3.45654       -0.64020
H          2.24532        3.06829       -1.82827
H         -3.83755        1.04032       -1.57622
H         -6.17803        2.04742       -1.27804
H         -6.71315        2.51404        0.33525
H         -4.25117        3.44047       -2.42261
H         -3.54262        4.78907       -1.53654
H         -4.98872        4.30350        0.42693
H         -5.99052        4.51500       -1.00791
H         -2.57539        3.23595        0.13844
H         -2.05556        2.76464       -1.46984
H         -4.51708        1.87514        1.28973
H         -5.23151        0.51205        0.43957
H         -1.94782       -2.11225       -0.33220
H         -3.63168       -4.04578       -0.58910
H         -5.33265       -3.67355       -0.86477
H         -1.89659       -3.51563       -2.49526
H         -2.47174       -2.78279       -3.98995
H         -4.78930       -2.68627       -3.08423
H         -4.18422       -4.33957       -3.00092
H         -3.05535       -0.69625       -2.80053
H         -1.36560       -1.09187       -2.48815
H         -4.82810       -1.24279       -0.90308
H         -4.26617       -1.95655        0.60871
H         -3.43118       -0.15590        2.06944
H         -2.55422       -1.55114        4.16918
H         -0.90152       -2.16161        4.11704
H         -2.94945        1.02747        4.39008
H         -1.55167        2.09707        4.50551
H         -0.01070        0.16179        4.22577
H         -1.09264       -0.12824        5.58926
H         -0.87321        1.53173        2.18377
H         -2.51337        2.16610        2.21446
H         -0.51206       -1.07939        1.92169
H         -1.93048       -2.11681        1.85517
C          3.45468        4.65203       -0.31294
H          4.15697        4.98403        0.45752
H          4.00168        4.54455       -1.26470
H          2.67666        5.42557       -0.44172
O          2.91787        3.42338        0.11236
C          4.21549        0.98639       -0.44338
C          5.08359        0.76780        0.63683
C          4.74914        1.56118       -1.60797
C          6.42348        1.14969        0.57443
H          4.69425        0.29993        1.53719
C          6.08988        1.94049       -1.67848
H          4.09985        1.71015       -2.46697
C          6.93397        1.74261       -0.58307
H          7.07278        0.98161        1.43084
H          6.47771        2.38613       -2.59199
H          7.97901        2.03813       -0.63413
