88
O1C(C(OB1[Cu]/C(=[C]/COC)/c1ccccc1)(C)C)(C)C.P(c1ccccc1)(c1ccccc1)c1c(CN(C)C)cccc1
O         -2.06293       -1.78477        1.11858
O         -2.41457       -1.50267       -1.11481
C         -3.22140       -2.60048        0.80231
C         -3.11717       -2.72308       -0.75626
C         -3.11271       -3.91710        1.56711
C         -4.45475       -1.81622        1.27223
C         -2.23966       -3.89564       -1.21184
C         -4.45380       -2.74674       -1.49357
B         -1.70521       -1.03381       -0.00762
Cu        -0.37502        0.47962        0.01179
P          1.66768       -0.46971       -0.21027
C          0.97104        3.40069       -0.41226
C         -1.37609        2.17036       -0.29542
C         -0.14919        2.46076       -0.28830
H         -2.16257       -4.41737        1.36690
H         -3.93095       -4.59532        1.29715
H         -3.17202       -3.72324        2.64336
H         -4.52829       -0.85393        0.75682
H         -4.35639       -1.61351        2.34367
H         -5.38161       -2.37745        1.11018
H         -2.05454       -3.80421       -2.28564
H         -2.72111       -4.86130       -1.02128
H         -1.26836       -3.87606       -0.70897
H         -4.27766       -2.80981       -2.57244
H         -5.03261       -1.84038       -1.30073
H         -5.05170       -3.61557       -1.19303
H          1.54254        3.18486       -1.33094
H          1.67838        3.26646        0.42337
C          1.57455       -1.95386       -1.30406
C          2.35113       -3.11234       -1.15910
C          0.64146       -1.88678       -2.35313
C          2.21296       -4.17074       -2.05962
H          3.05453       -3.20262       -0.33864
C          0.52662       -2.93391       -3.26740
H         -0.02134       -1.02948       -2.42684
C          1.31168       -4.07940       -3.12237
H          2.81358       -5.06727       -1.92964
H         -0.19689       -2.86301       -4.07483
H          1.21043       -4.90336       -3.82372
C          2.92318        0.60381       -1.04799
C          3.72875        1.47530       -0.29525
C          2.95142        0.70606       -2.44766
C          4.53512        2.42365       -0.92400
H          3.72601        1.41533        0.78897
C          3.75580        1.65880       -3.07511
H          2.34264        0.04134       -3.05284
C          4.54779        2.52426       -2.31713
H          5.15081        3.08769       -0.32276
H          3.76359        1.72171       -4.16009
H          5.17216        3.26623       -2.80722
O          0.48324        4.74029       -0.43022
C         -2.77512        2.54152       -0.32794
C         -3.78755        1.63391       -0.67866
C         -3.12309        3.86661        0.00162
C         -5.12072        2.04184       -0.69081
H         -3.51055        0.62089       -0.94779
C         -4.45891        4.26301       -0.00508
H         -2.33107        4.56775        0.24959
C         -5.46354        3.35255       -0.34759
H         -5.89572        1.33141       -0.96851
H         -4.71703        5.28655        0.25528
H         -6.50481        3.66435       -0.35046
C          1.53103        5.67633       -0.56748
H          1.07660        6.67066       -0.58749
H          2.24136        5.62511        0.27591
H          2.09891        5.52191       -1.50039
C          0.50570       -0.72704        2.88312
H         -0.16298       -1.42832        2.37411
H          0.35039       -0.86226        3.97000
N          0.08254        0.62218        2.47702
C         -1.28600        0.87502        2.94074
H         -1.93562        0.07113        2.59386
H         -1.33934        0.94176        4.04431
H         -1.64047        1.81443        2.50774
C          0.97529        1.67970        2.94135
H          0.60254        2.63797        2.56750
H          1.03805        1.73180        4.04503
H          1.98327        1.52652        2.54737
C          2.56425       -1.01689        1.30933
C          1.95676       -1.07180        2.58654
C          3.92178       -1.36878        1.18154
C          2.74157       -1.49194        3.67239
C          4.67680       -1.79359        2.27172
H          4.39878       -1.29304        0.20909
C          4.07777       -1.85848        3.52866
H          2.28585       -1.52535        4.65854
H          5.72102       -2.06243        2.13869
H          4.64850       -2.17904        4.39605
