59
O1C(C(O[B]1)(C)C)(C)C.[Cu]/C(=[C]/COC)/c1ccccc1.P(SC)(SC)SC
O          1.66744       -1.67356        0.96691
O          1.38665       -1.83578       -1.29551
C          2.28142       -2.93745        0.58381
C          2.45556       -2.76470       -0.96603
C          3.57978       -3.10407        1.36779
C          1.28296       -4.03917        0.96274
C          3.77139       -2.08007       -1.35952
C          2.25854       -4.03883       -1.78327
B          1.03947       -1.13311       -0.15482
Cu        -0.24677        0.40484       -0.09381
P         -2.24438       -0.57303        0.10461
C         -1.61845        3.34357        0.05867
C          0.72635        2.10895       -0.01608
C         -0.50984        2.37695       -0.02468
H          4.24160       -2.24563        1.23210
H          4.11127       -4.01004        1.05327
H          3.35703       -3.19235        2.43625
H          0.33863       -3.90948        0.42503
H          1.07387       -3.97199        2.03560
H          1.67868       -5.03828        0.75037
H          3.73027       -1.82482       -2.42284
H          4.63579       -2.73149       -1.19020
H          3.91374       -1.15024       -0.80054
H          2.38376       -3.81543       -2.84765
H          1.25695       -4.45077       -1.64223
H          2.99681       -4.80001       -1.50383
H         -2.18648        3.17737        0.99082
H         -2.33358        3.18350       -0.76619
O         -1.09456        4.66429        0.01536
C          2.12668        2.47475       -0.00233
C          3.13260        1.56886        0.36855
C          2.47481        3.79376       -0.35206
C          4.46639        1.97319        0.37980
H          2.85066        0.56105        0.65441
C          3.81132        4.18680       -0.34341
H          1.68512        4.49123       -0.61630
C          4.81109        3.27851        0.01863
H          5.23909        1.26620        0.67074
H          4.07392        5.20512       -0.61813
H          5.85276        3.58849        0.02236
C         -2.10985        5.64455        0.09364
H         -1.61767        6.61968        0.05339
H         -2.82013        5.56713       -0.74667
H         -2.67948        5.56950        1.03470
C         -3.45195        0.75221       -2.26886
H         -3.32675       -0.17960       -2.82610
H         -4.21997        1.36563       -2.74720
H         -2.50445        1.30065       -2.24708
C         -3.85925       -3.16119       -0.48593
H         -4.65356       -2.50639       -0.85351
H         -3.91902       -4.12976       -0.98946
H         -3.95994       -3.30330        0.59353
C         -1.08958       -0.71964        2.90009
H         -0.36621       -1.39525        2.44028
H         -0.74087        0.31079        2.80009
H         -1.21715       -0.96575        3.95782
S         -2.20604       -2.46551       -0.88263
S         -2.76620       -0.90434        2.14645
S         -4.03814        0.41695       -0.55700
