80
O1C(C(OB1[Cu]C(=C=C1C=C[CH]C=C1)COC)(C)C)(C)C.P(Oc1ccccc1)(Oc1ccccc1)Oc1ccccc1
O         -3.77953       -0.94121       -1.10569
O         -2.88715       -1.30173        0.96433
C         -4.66340       -1.89662       -0.45475
C         -4.27090       -1.73954        1.05551
C         -6.10626       -1.53079       -0.79128
C         -4.31741       -3.27766       -1.02735
C         -5.04390       -0.62346        1.77021
C         -4.32193       -3.02332        1.87926
B         -2.67398       -0.73764       -0.29261
Cu        -1.02368        0.30920       -0.68717
P          0.80420       -0.88338       -0.46726
C         -3.39686        2.28547       -0.78633
C         -0.74020        2.33564       -0.87367
C         -1.94973        1.98694       -0.81720
H         -6.32663       -0.49176       -0.53528
H         -6.80866       -2.18087       -0.25620
H         -6.27574       -1.65573       -1.86561
H         -3.28051       -3.54312       -0.79996
H         -4.42621       -3.24524       -2.11574
H         -4.97791       -4.05806       -0.63373
H         -4.56791       -0.42494        2.73592
H         -6.08847       -0.90124        1.94826
H         -5.02295        0.30132        1.18611
H         -4.01779       -2.81231        2.90988
H         -3.64606       -3.78166        1.47854
H         -5.33880       -3.43296        1.90023
H         -3.79033        2.01136        0.20905
H         -3.92031        1.64703       -1.51494
O         -3.60582        3.66097       -1.04942
C          0.43023        3.17080       -0.88580
C          1.05388        3.51042        0.33230
C          0.98020        3.64940       -2.09001
C          2.18621        4.31917        0.34000
H          0.64729        3.12419        1.26058
C          2.11719        4.45764       -2.07093
H          0.50887        3.38381       -3.03150
C          2.72443        4.79937       -0.85892
H          2.65601        4.56670        1.28827
H          2.53029        4.82104       -3.00820
H          3.60984        5.42927       -0.84987
C         -4.97800        3.99377       -1.05269
H         -5.04840        5.06385       -1.26459
H         -5.53324        3.43760       -1.82658
H         -5.45155        3.79109       -0.07679
O          0.59221       -2.45946       -0.85191
O          1.32600       -1.01595        1.09117
O          2.20032       -0.57428       -1.29759
C          1.64410       -3.37906       -0.77419
C          1.93993       -3.98199        0.44734
C          2.36210       -3.68011       -1.93016
C          2.98691       -4.90449        0.50691
H          1.36621       -3.71235        1.32655
C          3.40405       -4.60585       -1.85741
H          2.10648       -3.17928       -2.85725
C          3.72092       -5.21637       -0.64062
H          3.22875       -5.37694        1.45491
H          3.97220       -4.84370       -2.75228
H          4.53547       -5.93307       -0.58730
C          1.10346        0.02928        1.99979
C         -0.18915        0.28496        2.46114
C          2.20335        0.75857        2.44733
C         -0.37772        1.32277        3.37696
H         -1.02725       -0.30711        2.10404
C          1.99843        1.77720        3.38001
H          3.19095        0.53062        2.06252
C          0.71072        2.06729        3.84051
H         -1.38207        1.54149        3.72880
H          2.84926        2.35169        3.73582
H          0.55649        2.87000        4.55615
C          3.37791       -0.09876       -0.71418
C          4.26259       -0.99194       -0.11031
C          3.63918        1.26805       -0.76724
C          5.43427       -0.49166        0.46212
H          4.02146       -2.04840       -0.08088
C          4.81316        1.75385       -0.19041
H          2.92394        1.93123       -1.23737
C          5.71053        0.87875        0.42757
H          6.12974       -1.17660        0.93940
H          5.01144        2.82106       -0.21889
H          6.62168        1.26094        0.87955
