77
O1C(C(OB1[Cu]C(=C=C1C=C[CH]C=C1)COC)(C)C)(C)C.P(c1ccc(cc1)Cl)(c1ccc(cc1)Cl)c1ccc(cc1)Cl
O          3.57484        0.21280       -1.20536
O          3.66155       -1.43847        0.36629
C          4.92056        0.26413       -0.65454
C          5.04487       -1.13626        0.03697
C          5.90608        0.51919       -1.79135
C          4.94562        1.43308        0.34002
C          5.52164       -2.24055       -0.91678
C          5.87056       -1.15651        1.32037
B          2.82486       -0.71162       -0.47753
Cu         0.83008       -1.00585       -0.56207
P         -0.54712        0.72421       -0.02853
C          1.88518       -3.85492       -0.94391
C         -0.49535       -2.68356       -0.67129
C          0.71734       -2.96687       -0.78690
H          5.79397       -0.21628       -2.59085
H          6.93929        0.48722       -1.42556
H          5.72659        1.51083       -2.21969
H          4.23281        1.26793        1.15381
H          4.65557        2.35081       -0.18223
H          5.94226        1.58207        0.76904
H          5.38444       -3.21134       -0.42979
H          6.58038       -2.12859       -1.17452
H          4.93284       -2.23787       -1.83934
H          5.88337       -2.17024        1.73394
H          5.44937       -0.49115        2.07717
H          6.90616       -0.85494        1.12288
H          2.58656       -3.66702       -0.11666
H          2.41969       -3.58398       -1.87131
C          0.01326        2.41784       -0.47610
C         -0.86573        3.51376       -0.51789
C          1.36796        2.61808       -0.77832
C         -0.40049        4.78963       -0.82962
H         -1.92455        3.37294       -0.32089
C          1.84333        3.89171       -1.09259
H          2.05566        1.77910       -0.79207
C          0.95628        4.96687       -1.10967
H         -1.07777        5.63640       -0.86163
H          2.89050        4.04392       -1.33199
C         -2.28479        0.72264       -0.63192
C         -3.37852        0.44513        0.19677
C         -2.50784        0.92721       -2.00414
C         -4.66957        0.37699       -0.32678
H         -3.23145        0.26647        1.25626
C         -3.79260        0.87134       -2.53704
H         -1.67106        1.13880       -2.66535
C         -4.86494        0.59119       -1.68854
H         -5.51230        0.14315        0.31394
H         -3.96294        1.03153       -3.59629
C         -0.71980        0.73931        1.80451
C         -0.52533       -0.46961        2.49110
C         -1.06379        1.88542        2.53578
C         -0.68577       -0.54254        3.87424
H         -0.23952       -1.36229        1.94186
C         -1.22318        1.82810        3.91934
H         -1.20168        2.83587        2.03043
C         -1.03669        0.61042        4.57628
H         -0.53309       -1.47767        4.40215
H         -1.48685        2.71536        4.48496
O          1.46103       -5.20720       -0.97582
C         -1.92327       -2.77737       -0.55784
C         -2.52361       -3.06074        0.68522
C         -2.74910       -2.59680       -1.68462
C         -3.90797       -3.18079        0.78865
H         -1.89400       -3.19971        1.55868
C         -4.13084       -2.72065       -1.57202
H         -2.29287       -2.36150       -2.64088
C         -4.71750       -3.01577       -0.33798
H         -4.35491       -3.40871        1.75288
H         -4.75583       -2.57340       -2.44828
H         -5.79687       -3.10742       -0.25585
C          2.55324       -6.09546       -1.08812
H          2.14346       -7.10885       -1.09860
H          3.12234       -5.93036       -2.01874
H          3.24946       -5.99900       -0.23790
Cl         1.54855        6.57233       -1.50566
Cl        -1.23986        0.53227        6.31794
Cl        -6.48539        0.47031       -2.35773
