77
O1C(C(OB1/C(=C(\[Cu][P](c1ccc(cc1)Cl)(c1ccc(cc1)Cl)c1ccc(cc1)Cl)/c1ccccc1)/COC)(C)C)(C)C
O         -4.06202       -1.48557       -0.60602
O         -1.96707       -1.18375        0.27448
C         -3.42503       -2.78484       -0.63269
C         -2.26547       -2.60346        0.40766
C         -4.45916       -3.84701       -0.27203
C         -2.90973       -3.00073       -2.06258
C         -2.72431       -2.82606        1.85490
C         -1.00883       -3.41769        0.11877
B         -3.12549       -0.55877       -0.19313
C         -4.80382        1.39251       -0.44202
C         -2.31188        1.84219       -0.18225
C         -3.36014        0.96632       -0.26497
Cu        -0.52876        1.13858       -0.07224
P          1.46317        0.16800       -0.00377
H         -4.95820       -3.61266        0.67077
H         -3.98929       -4.83384       -0.18892
H         -5.22331       -3.89673       -1.05422
H         -2.14865       -2.25658       -2.31703
H         -3.74577       -2.88789       -2.75926
H         -2.47721       -3.99835       -2.19263
H         -1.93209       -2.50350        2.53760
H         -2.93426       -3.88251        2.05117
H         -3.62214       -2.24072        2.07463
H         -0.25027       -3.22066        0.88248
H         -0.57993       -3.16950       -0.85208
H         -1.23879       -4.48921        0.13713
H         -5.33526        0.67203       -1.08436
H         -4.88107        2.38641       -0.90901
C          2.91343        1.21820       -0.38870
C          2.82927        2.57881       -0.05313
C          4.08536        0.73197       -0.98619
C          3.90108        3.43790       -0.28796
H          1.91401        2.96990        0.38548
C          5.16256        1.58293       -1.23100
H          4.15915       -0.31250       -1.27483
C          5.06134        2.92896       -0.87434
H          3.83707        4.48946       -0.03031
H          6.06957        1.21148       -1.69573
C          1.83005       -0.58334        1.62859
C          3.12655       -0.75532        2.13288
C          0.73098       -1.01327        2.39115
C          3.32961       -1.36644        3.37037
H          3.98556       -0.40499        1.56790
C          0.92408       -1.62907        3.62622
H         -0.27637       -0.86858        2.00951
C          2.22470       -1.80313        4.10330
H          4.33066       -1.50020        3.76613
H          0.07770       -1.96299        4.21698
C          1.54542       -1.23613       -1.18282
C          0.75868       -1.15427       -2.34247
C          2.29969       -2.39443       -0.95104
C          0.72876       -2.20226       -3.26048
H          0.14126       -0.27564       -2.51315
C          2.27519       -3.45260       -1.85912
H          2.89067       -2.48968       -0.04491
C          1.48710       -3.34677       -3.00644
H          0.11214       -2.14379       -4.15071
H          2.84929       -4.35457       -1.67650
O         -5.43701        1.41713        0.84520
C         -6.80200        1.76164        0.76067
H         -7.36942        1.04259        0.14563
H         -7.20535        1.75221        1.77792
H         -6.94510        2.76761        0.33031
C         -2.48974        3.31368       -0.18944
C         -1.65344        4.12127       -0.98615
C         -3.43386        3.96183        0.63387
C         -1.77628        5.50904       -0.99482
H         -0.90276        3.63328       -1.60568
C         -3.53900        5.35372        0.64464
H         -4.07882        3.35758        1.26447
C         -2.71891        6.13476       -0.17278
H         -1.12808        6.10563       -1.63275
H         -4.26989        5.83032        1.29408
H         -2.80598        7.21829       -0.16424
Cl         6.41361        4.00247       -1.18082
Cl         2.47612       -2.57557        5.65793
Cl         1.43263       -4.68412       -4.13920
