77
O1C(C(O[B]1)(C)C)(C)C.[Cu]/C(=[C]/COC)/c1ccccc1.P(c1ccccc1)(c1ccccc1)c1ccccc1
O          2.37734       -1.48789        1.04035
O          2.13192       -1.60952       -1.22529
C          3.01164       -2.73380        0.64003
C          3.21571       -2.52103       -0.89946
C          4.29457       -2.90947        1.44676
C          2.01648       -3.85587        0.96686
C          4.52334       -1.79805       -1.24757
C          3.06239       -3.77742       -1.75339
B          1.74040       -0.93481       -0.07179
Cu         0.39154        0.55102       -0.04721
P         -1.69233       -0.34622       -0.00005
C         -0.91703        3.52414       -0.15918
C          1.39491        2.23938        0.01407
C          0.16821        2.53484       -0.07826
H          4.94930       -2.04071        1.34772
H          4.84235       -3.80141        1.12003
H          4.04992       -3.02783        2.50750
H          1.08789       -3.73002        0.40126
H          1.76609       -3.80946        2.03136
H          2.43159       -4.84605        0.74967
H          4.49901       -1.51663       -2.30488
H          5.39822       -2.43494       -1.07622
H          4.63242       -0.87982       -0.66301
H          3.20722       -3.52395       -2.80879
H          2.06666       -4.21405       -1.64547
H          3.80892       -4.53188       -1.47816
H         -1.63711        3.37023        0.66135
H         -1.48601        3.38116       -1.09352
C         -1.94796       -1.42052        1.47479
C         -3.20989       -1.94777        1.79647
C         -0.84445       -1.74172        2.27844
C         -3.36371       -2.78281        2.90123
H         -4.07458       -1.69913        1.18833
C         -1.00343       -2.58054        3.38511
H          0.13937       -1.35587        2.03121
C         -2.25881       -3.10165        3.69781
H         -4.34416       -3.18546        3.14152
H         -0.14040       -2.82353        3.99910
H         -2.38045       -3.75402        4.55855
C         -3.09087        0.84940        0.07403
C         -3.57748        1.43489       -1.10695
C         -3.55346        1.33357        1.30839
C         -4.50618        2.47431       -1.05368
H         -3.22738        1.07768       -2.07143
C         -4.48026        2.37629        1.35882
H         -3.18708        0.89729        2.23292
C         -4.95784        2.95193        0.17928
H         -4.87448        2.91330       -1.97713
H         -4.82815        2.73854        2.32256
H         -5.67844        3.76406        0.22004
C         -2.10114       -1.43416       -1.42763
C         -1.04358       -1.96628       -2.18106
C         -3.42229       -1.78481       -1.75295
C         -1.30773       -2.84314       -3.23630
H         -0.01719       -1.70681       -1.94280
C         -3.67956       -2.65719       -2.80937
H         -4.25235       -1.36348       -1.19371
C         -2.62165       -3.19070       -3.55184
H         -0.47987       -3.24893       -3.81160
H         -4.70544       -2.91989       -3.05399
H         -2.82454       -3.87070       -4.37509
O         -0.37420        4.84045       -0.10757
C          2.79338        2.61211        0.07753
C          3.78748        1.73208        0.53250
C          3.15316        3.91576       -0.31622
C          5.11860        2.14392        0.58075
H          3.50000        0.73693        0.85404
C          4.48643        4.31714       -0.26982
H          2.37212        4.59622       -0.64334
C          5.47442        3.43276        0.17459
H          5.88061        1.45537        0.93754
H          4.75582        5.32383       -0.57941
H          6.51391        3.74867        0.20800
C         -1.37896        5.82699       -0.21185
H         -0.88393        6.79987       -0.14927
H         -1.92066        5.76170       -1.17098
H         -2.11798        5.74750        0.60315
