56
O1C(C(OB1[Cu][P](c1ccccc1)(c1ccccc1)c1ccccc1)(C)C)(C)C
O         -3.61502        1.08694        0.37294
O         -3.60748       -1.08955       -0.32083
C         -4.98903        0.78138        0.01912
C         -4.98795       -0.78598        0.00893
C         -5.91654        1.42404        1.04782
C         -5.23545        1.39332       -1.36723
C         -5.25825       -1.39921        1.39028
C         -5.89575       -1.42943       -1.03670
B         -2.81464       -0.00082        0.03282
Cu        -0.82304        0.00162        0.03862
P          1.45976        0.00204        0.00788
H         -5.65382        1.12518        2.06501
H         -6.96087        1.14734        0.85840
H         -5.83589        2.51447        0.98659
H         -4.57575        0.93885       -2.11273
H         -5.01130        2.46386       -1.32489
H         -6.27473        1.26702       -1.69114
H         -5.03146       -2.46932        1.35150
H         -6.30344       -1.27479        1.69534
H         -4.61299       -0.94400        2.14786
H         -5.81358       -2.51973       -0.97532
H         -5.61586       -1.12850       -2.04872
H         -6.94393       -1.15541       -0.86544
C          2.20564        1.65213        0.30234
C          3.46062        1.83561        0.90205
C          1.46682        2.77322       -0.10873
C          3.97463        3.12229        1.07084
H          4.02936        0.97615        1.24588
C          1.98564        4.05750        0.05832
H          0.48102        2.63447       -0.54745
C          3.24064        4.23288        0.64628
H          4.94652        3.25752        1.53796
H          1.40587        4.91916       -0.26070
C          2.22926       -1.09026        1.26594
C          3.44190       -1.76623        1.06545
C          1.55354       -1.23403        2.48853
C          3.97574       -2.56299        2.07998
H          3.96227       -1.67809        0.11617
C          2.09246       -2.02730        3.50154
H          0.60039       -0.73096        2.63684
C          3.30458       -2.69167        3.29848
H          4.91436       -3.08589        1.91688
H          1.56159       -2.13432        4.44343
C          2.16203       -0.55804       -1.59242
C          1.43001       -1.51619       -2.31241
C          3.37663       -0.08609       -2.11184
C          1.91620       -2.00904       -3.52359
H          0.47444       -1.86363       -1.92548
C          3.85755       -0.57846       -3.32643
H          3.94121        0.67005       -1.57383
C          3.13096       -1.54153       -4.03104
H          1.34186       -2.74881       -4.07427
H          4.79818       -0.20658       -3.72390
H          3.64229        5.23338        0.78249
H          3.50664       -1.92006       -4.97783
H          3.72126       -3.31521        4.08486
