86
O1C(C(O[B]1)(C)C)(C)C.[Cu]/C(=[C]/COC)/c1ccccc1.P(C1CCCC1)(C1CCCC1)C1CCCC1
O          1.85666       -2.04160        1.07687
O          1.09316       -2.08913       -1.07346
C          1.98876       -3.42133        0.64060
C          1.90366       -3.28496       -0.91831
C          3.30744       -3.97545        1.17316
C          0.80862       -4.19426        1.24545
C          3.25911       -2.98799       -1.57421
C          1.20972       -4.43978       -1.63544
B          1.22334       -1.30616        0.07579
Cu         0.49001        0.55676        0.19800
P         -1.69735        0.12749       -0.05798
C          0.24430        3.79885        0.16389
C          1.97920        1.80599        0.24204
C          0.90231        2.48316        0.20465
H          4.15024       -3.34405        0.88323
H          3.48440       -4.99120        0.79976
H          3.27627       -4.01301        2.26696
H         -0.14383       -3.80770        0.86988
H          0.81975       -4.06319        2.33202
H          0.86421       -5.26526        1.02219
H          3.09095       -2.70874       -2.61897
H          3.92387       -3.85849       -1.54858
H          3.75623       -2.14733       -1.08028
H          1.18549       -4.24277       -2.71233
H          0.17933       -4.56164       -1.29278
H          1.74711       -5.38157       -1.47287
H         -0.40025        3.92721        1.05239
H         -0.42200        3.86100       -0.71635
O          1.21641        4.83830        0.11300
C          3.42829        1.74698        0.23934
C          4.12922        0.56686        0.53437
C          4.14943        2.91801       -0.06744
C          5.52348        0.55586        0.51458
H          3.56814       -0.32577        0.78861
C          5.54223        2.89636       -0.09039
H          3.59735        3.82945       -0.27833
C          6.23495        1.71593        0.19753
H          6.05624       -0.36273        0.74847
H          6.09019        3.80381       -0.33222
H          7.32175        1.70262        0.17813
C          0.62982        6.12118        0.06457
H          1.44554        6.84815        0.03017
H         -0.00177        6.25097       -0.83100
H          0.00986        6.32308        0.95461
C         -2.92208        1.51659        0.15507
C         -4.37163        1.40396       -0.37362
C         -3.05844        1.99070        1.64046
H         -2.44131        2.33036       -0.40240
C         -5.09634        2.53139        0.37917
H         -4.82017        0.43921       -0.11675
H         -4.42176        1.51137       -1.46191
C         -4.54396        2.40986        1.81036
H         -2.37370        2.82264        1.83195
H         -2.79501        1.20745        2.35533
H         -4.81868        3.50210       -0.05390
H         -6.18783        2.44999        0.33112
H         -4.65675        3.33050        2.39202
H         -5.09267        1.62356        2.34425
C         -1.83611       -0.48566       -1.80425
C         -3.09533       -1.23100       -2.28724
C         -1.60428        0.61382       -2.87171
H         -0.99535       -1.18925       -1.86110
C         -2.84256       -1.32503       -3.80257
H         -4.00451       -0.65263       -2.09143
H         -3.21487       -2.21031       -1.81135
C         -2.23568        0.04942       -4.18065
H         -0.53788        0.84001       -2.97038
H         -2.10219        1.54893       -2.58979
H         -2.11464       -2.12315       -3.99574
H         -3.74636       -1.56240       -4.37436
H         -1.49925       -0.04185       -4.98522
H         -3.01915        0.72454       -4.54342
C         -2.20941       -1.34655        0.96116
C         -1.53846       -1.43263        2.35217
C         -3.69120       -1.61953        1.27808
H         -1.82758       -2.18553        0.35973
C         -2.29505       -2.57836        3.07386
H         -1.67365       -0.48867        2.89325
H         -0.46200       -1.60173        2.27361
C         -3.61718       -2.79322        2.27702
H         -4.29223       -1.84815        0.39218
H         -4.13676       -0.74213        1.76289
H         -1.69487       -3.49444        3.07806
H         -2.48988       -2.32410        4.12084
H         -3.57413       -3.73889        1.72325
H         -4.49949       -2.84332        2.92382
