29
O1C(C(OB1[Cu][PH2]C)(C)C)(C)C
O          1.07751       -1.04040        0.43862
O          1.13665        1.03376       -0.51760
C          2.48055       -0.76647        0.17915
C          2.48225        0.78737       -0.02840
C          3.30497       -1.26495        1.36366
C          2.85526       -1.54588       -1.08922
C          2.62587        1.57189        1.28338
C          3.48172        1.30417       -1.06047
B          0.31842       -0.01175       -0.10683
Cu        -1.66615       -0.03629       -0.27754
P         -3.94719       -0.05996       -0.39070
H          2.94783       -0.84278        2.30555
H          4.36285       -1.00373        1.23964
H          3.22819       -2.35504        1.43312
H          2.26932       -1.19711       -1.94506
H          2.62787       -2.60492       -0.93243
H          3.92036       -1.44909       -1.32751
H          2.40747        2.62664        1.08927
H          3.63824        1.49508        1.69547
H          1.91275        1.21047        2.03058
H          3.39490        2.39249       -1.14440
H          3.29506        0.87565       -2.04760
H          4.50942        1.06498       -0.76153
H         -4.56827       -1.21743       -0.91861
H         -4.58085        0.88657       -1.23139
C         -4.89113        0.16909        1.19071
H         -5.97305        0.13962        1.03933
H         -4.59843       -0.62036        1.88902
H         -4.60990        1.13118        1.62872
