27
P(c1ccccc1)(c1ccccc1)C
P          0.02485        1.40429        0.69535
C         -1.42520        0.32034        0.31363
C         -1.50431       -0.93782        0.93859
C         -2.49242        0.72369       -0.50352
C         -2.60498       -1.76900        0.74098
H         -0.68776       -1.27459        1.57301
C         -3.60044       -0.10680       -0.69574
H         -2.46929        1.68818       -1.00182
C         -3.66033       -1.35552       -0.07754
H         -2.64003       -2.74104        1.22631
H         -4.41470        0.22450       -1.33537
H         -4.52052       -2.00177       -0.23020
C          1.42427        0.29454        0.19623
C          2.60295        0.33029        0.95504
C          1.36765       -0.55333       -0.92285
C          3.70473       -0.45368        0.60104
H          2.65672        0.97317        1.83052
C          2.46410       -1.33929       -1.27504
H          0.45525       -0.60618       -1.51116
C          3.63648       -1.28947       -0.51409
H          4.61120       -0.41514        1.19961
H          2.40557       -1.99238       -2.14215
H          4.49014       -1.90377       -0.78844
C          0.02480        2.56163       -0.77055
H         -0.77736        3.30025       -0.67180
H          0.97847        3.09852       -0.77227
H         -0.08435        2.03246       -1.72352
