88
O1C(C(OB1/C(=C(\[Cu]1[P](c2ccccc2)(c2ccccc2)c2c(C[N]1(C)C)cccc2)/COC)/c1ccccc1)(C)C)(C)C
O         -3.40789       -1.81177        0.51648
O         -1.50990       -1.70144       -0.75974
C         -3.11216       -3.17652        0.15706
C         -1.61982       -3.08616       -0.34552
C         -3.32755       -4.06601        1.37942
C         -4.10500       -3.55699       -0.95117
C         -0.57825       -3.31823        0.75625
C         -1.30518       -3.98552       -1.53996
B         -2.54774       -0.98055       -0.17797
Cu         0.11550        0.70337       -0.00813
P          2.27168        0.20761       -0.19956
C         -1.73919        2.86171       -0.53900
C         -2.76136        0.55031       -0.29765
C         -1.66335        1.36113       -0.38233
H         -2.74390       -3.71831        2.23502
H         -3.04885       -5.10355        1.16155
H         -4.38431       -4.04668        1.66389
H         -3.96690       -2.92213       -1.83204
H         -5.12076       -3.39414       -0.57889
H         -4.00361       -4.60464       -1.25329
H          0.40670       -3.03274        0.37436
H         -0.54317       -4.36882        1.06372
H         -0.79217       -2.71004        1.63836
H         -0.24813       -3.89729       -1.79998
H         -1.89746       -3.70741       -2.41431
H         -1.50839       -5.03476       -1.29598
H         -0.85840        3.21273       -1.10635
H         -1.64381        3.31971        0.46992
C          2.70149       -1.47440       -0.79897
C          3.78303       -2.22227       -0.31196
C          1.91807       -1.99158       -1.84444
C          4.08559       -3.46581       -0.87222
H          4.39159       -1.83395        0.49916
C          2.24357       -3.22013       -2.41947
H          1.04821       -1.43698       -2.18777
C          3.32451       -3.96089       -1.93265
H          4.92197       -4.04167       -0.48498
H          1.64577       -3.60450       -3.24117
H          3.56824       -4.92276       -2.37555
C          3.10675        1.30925       -1.41486
C          2.59234        2.60613       -1.56927
C          4.20917        0.91233       -2.18646
C          3.18441        3.49889       -2.46248
H          1.71191        2.90103       -1.00249
C          4.79476        1.80520       -3.08603
H          4.60464       -0.09485       -2.09049
C          4.28704        3.09945       -3.22191
H          2.77579        4.49922       -2.57614
H          5.64554        1.48786       -3.68313
H          4.74239        3.79101       -3.92563
O         -2.91046        3.34052       -1.18358
C         -4.19000        0.99322       -0.20891
C         -5.18546        0.38747       -0.99136
C         -4.59730        1.96172        0.72391
C         -6.52678        0.75419       -0.87327
H         -4.89884       -0.37672       -1.71043
C         -5.93522        2.32760        0.85460
H         -3.84444        2.43607        1.34863
C         -6.90970        1.72752        0.05156
H         -7.27450        0.27647       -1.50259
H         -6.22042        3.08190        1.58491
H         -7.95451        2.01186        0.15006
C         -3.02502        4.73963       -1.14783
H         -3.93940        5.00721       -1.68535
H         -3.09988        5.11959       -0.11301
H         -2.16724        5.24035       -1.63258
C          1.28077       -0.37532        2.80912
H          1.10205       -1.28839        2.22859
H          1.16157       -0.64773        3.87350
N          0.24203        0.59297        2.40960
C         -1.08206        0.11065        2.81313
H         -1.26284       -0.87896        2.39030
H         -1.18259        0.05189        3.91223
H         -1.84678        0.77378        2.40518
C          0.47151        1.94055        2.93276
H         -0.32638        2.59208        2.56508
H          0.47599        1.97106        4.03767
H          1.42592        2.32831        2.56936
C          3.27090        0.40788        1.34605
C          2.70711        0.11082        2.61035
C          4.59532        0.86806        1.27909
C          3.50074        0.27869        3.75208
C          5.36960        1.02568        2.42903
H          5.02905        1.11107        0.31474
C          4.81963        0.72634        3.67325
H          3.06929        0.05898        4.72543
H          6.39284        1.38189        2.34789
H          5.40653        0.84716        4.57959
