88
O1C(C(OB1[Cu]C(=C=C1[CH]C=CC=C1)COC)(C)C)(C)C.P(c1ccccc1)(c1ccccc1)c1c(CN(C)C)cccc1
O          3.12412       -0.24931       -0.96839
O          3.01944        0.37602        1.22185
C          4.49934       -0.22456       -0.50098
C          4.31476       -0.26156        1.05369
C          5.23980       -1.41736       -1.09907
C          5.11287        1.08867       -1.00639
C          4.19183       -1.68539        1.61085
C          5.35257        0.52699        1.84836
B          2.28921        0.24230        0.04181
Cu         0.34130        0.73773       -0.16872
P         -0.89025       -1.12184        0.13586
C          1.76546        3.43416        0.14497
C         -0.74511        2.54704        0.13323
C          0.49941        2.68104        0.08018
H          4.72319       -2.35506       -0.88278
H          6.26197       -1.48028       -0.70700
H          5.29817       -1.30733       -2.18718
H          4.58332        1.94991       -0.58727
H          5.01522        1.12869       -2.09612
H          6.17484        1.16978       -0.74980
H          3.86926       -1.63134        2.65406
H          5.14627       -2.22191        1.56727
H          3.43618       -2.25665        1.06384
H          5.12978        0.45386        2.91795
H          5.34601        1.58503        1.57636
H          6.36009        0.12733        1.68126
H          2.33967        3.25676       -0.78166
H          2.37225        3.02888        0.97152
C         -0.03412       -2.22953        1.33449
C          0.03719       -3.62500        1.22685
C          0.56822       -1.59820        2.43586
C          0.68780       -4.37515        2.21016
H         -0.40611       -4.13100        0.37563
C          1.19196       -2.35118        3.42928
H          0.57183       -0.51339        2.49367
C          1.25577       -3.74255        3.31737
H          0.74571       -5.45592        2.11026
H          1.64916       -1.84824        4.27701
H          1.75662       -4.32910        4.08302
C         -2.59170       -0.98136        0.83698
C         -3.52861       -0.23900        0.09923
C         -2.98154       -1.54930        2.05729
C         -4.83447       -0.09173        0.55761
H         -3.22808        0.24219       -0.82669
C         -4.28957       -1.38593        2.52333
H         -2.27031       -2.12419        2.64208
C         -5.21887       -0.66445        1.77340
H         -5.54055        0.49827       -0.01821
H         -4.58064       -1.83151        3.47123
H         -6.23520       -0.53945        2.13755
O          1.51164        4.81947        0.31997
C         -2.13628        2.81781        0.34218
C         -2.97335        3.23384       -0.71271
C         -2.69765        2.66936        1.62773
C         -4.32175        3.50092       -0.48374
H         -2.55005        3.36238       -1.70408
C         -4.04297        2.94529        1.84920
H         -2.06265        2.33088        2.44066
C         -4.86411        3.36209        0.79711
H         -4.95003        3.82809       -1.30859
H         -4.45678        2.82190        2.84641
H         -5.91549        3.57304        0.97272
C          2.70652        5.56344        0.41746
H          2.42476        6.61143        0.55066
H          3.31918        5.24577        1.27838
H          3.32298        5.47305       -0.49376
C          0.48763       -0.92540       -2.87468
H          1.37543       -1.08665       -2.25594
H          0.80148       -1.03736       -3.92909
N          0.04696        0.45979       -2.62709
C          1.07841        1.39581       -3.08555
H          2.03071        1.13293       -2.62297
H          1.18976        1.37984       -4.18663
H          0.80439        2.40726       -2.77087
C         -1.23426        0.77505       -3.25397
H         -1.50435        1.80382       -3.00125
H         -1.20306        0.68006       -4.35597
H         -2.01642        0.11324       -2.87528
C         -1.21657       -2.17302       -1.35465
C         -0.56071       -1.98872       -2.59463
C         -2.18756       -3.18489       -1.23904
C         -0.89797       -2.84362       -3.65550
C         -2.49726       -4.02958       -2.30234
H         -2.71519       -3.30724       -0.29804
C         -1.84246       -3.85895       -3.52080
H         -0.40744       -2.69878       -4.61468
H         -3.24789       -4.80540       -2.17905
H         -2.07421       -4.50029       -4.36691
