26
CC(C)CC#Cc1ccccc1
C         -3.37125        0.81050       -1.26764
C         -3.55003       -0.03551       -0.00002
C         -3.37141        0.80948        1.26829
C         -2.60525       -1.26781       -0.00047
C         -1.18151       -0.92715       -0.00034
C         -0.00825       -0.61354       -0.00021
C          1.37415       -0.24760       -0.00009
C          2.37970       -1.23530        0.00002
C          3.72611       -0.87208        0.00013
C          4.09412        0.47732        0.00015
C          3.10361        1.46478        0.00004
C          1.75510        1.10956       -0.00008
H         -2.35966        1.22920       -1.31393
H         -4.08366        1.64254       -1.28390
H         -3.52806        0.21245       -2.17273
H         -4.57091       -0.44312       -0.00025
H         -4.08386        1.64148        1.28516
H         -2.35984        1.22819        1.31502
H         -3.52828        0.21069        2.17288
H         -2.82503       -1.88851       -0.88009
H         -2.82504       -1.88915        0.87870
H          2.09268       -2.28205        0.00000
H          4.49011       -1.64427        0.00021
H          5.14354        0.75692        0.00024
H          3.38199        2.51477        0.00005
H          0.98545        1.87498       -0.00016
