24
OCC#CCCc1ccccc1
O          5.44137        0.82067       -0.00329
C          4.77454       -0.44295       -0.09447
C          3.33533       -0.37019        0.17868
C          2.14543       -0.28832        0.39760
C          0.70614       -0.19351        0.64000
C         -0.12970       -0.10933       -0.66481
C         -1.61045       -0.01614       -0.37408
C         -2.22735        1.22897       -0.18385
C         -3.58576        1.31619        0.13167
C         -4.35097        0.15369        0.26280
C         -3.74828       -1.09354        0.07483
C         -2.38948       -1.17473       -0.24057
H          4.95066        1.46300       -0.53334
H          4.93629       -0.89631       -1.08443
H          5.26720       -1.08553        0.64230
H          0.49561        0.68733        1.26006
H          0.37471       -1.06194        1.22370
H          0.20133        0.76348       -1.23834
H          0.08367       -0.99294       -1.27622
H         -1.63897        2.13777       -0.28891
H         -4.04650        2.29019        0.27062
H         -5.40771        0.21927        0.50491
H         -4.33602       -2.00233        0.16934
H         -1.92801       -2.14827       -0.39017
