14
CC#Cc1cccs1
C          3.97202       -0.02058        0.00001
C          2.51593        0.07493       -0.00001
C          1.30411        0.16304       -0.00002
C         -0.10575        0.24614       -0.00001
C         -0.90138        1.37582       -0.00001
C         -2.29482        1.08299        0.00001
C         -2.55694       -0.26371        0.00002
S         -1.10112       -1.20416       -0.00001
H          4.40070        0.45337       -0.89070
H          4.40155        0.46921        0.88167
H          4.29260       -1.06839        0.00924
H         -0.48483        2.37589       -0.00002
H         -3.07052        1.84005        0.00002
H         -3.52061       -0.75534        0.00003
