16
CC#CCOC(=O)C
C          3.58411       -0.83266       -0.13098
C          2.35221       -0.05064       -0.06590
C          1.32586        0.58806       -0.00075
C          0.09717        1.37210        0.07767
O         -1.01970        0.70843       -0.57526
C         -1.70680       -0.19866        0.16781
C         -2.78062       -0.85885       -0.65981
O         -1.46846       -0.43406        1.33306
H          4.21962       -0.63219        0.73876
H          3.36145       -1.90547       -0.14067
H          4.15968       -0.59792       -1.03312
H          0.20015        2.31740       -0.46092
H         -0.16691        1.57441        1.12010
H         -3.37527       -0.10696       -1.18556
H         -2.31013       -1.49549       -1.41621
H         -3.41475       -1.46495       -0.01309
