86
O1C(C(OB1[Cu]C(=C=C1C=CC=C[CH]1)COC)(C)C)(C)C.P(c1ccc(cc1)C(F)(F)F)(c1ccc(cc1)C(F)(F)F)c1ccc(cc1)C(F)(F)F
O          3.62132       -0.18023       -1.68844
O          3.61243       -2.05932       -0.39452
C          4.98455       -0.32855       -1.20048
C          5.00534       -1.82660       -0.74214
C          5.95018        0.02107       -2.32897
C          5.14647        0.66117       -0.03836
C          5.34425       -2.80097       -1.87867
C          5.87138       -2.12029        0.47960
B          2.81732       -1.13801       -1.06987
Cu         0.80242       -1.23799       -1.08461
P         -0.30165        0.47018       -0.06551
C          1.55210       -4.04095       -2.04237
C         -0.69390       -2.73209       -1.43495
C          0.47732       -3.10562       -1.65882
H          5.74535       -0.56528       -3.22729
H          6.98781       -0.15571       -2.02189
H          5.84734        1.08000       -2.58811
H          4.45115        0.42638        0.77350
H          4.91912        1.67083       -0.39589
H          6.16677        0.65861        0.35961
H          5.13574       -3.82175       -1.54262
H          6.39905       -2.73986       -2.16761
H          4.72631       -2.60077       -2.75951
H          5.80753       -3.18445        0.72910
H          5.53963       -1.55143        1.35086
H          6.92212       -1.87854        0.27990
H          2.30134       -4.06920       -1.23629
H          2.06963       -3.64468       -2.93361
C          0.39736        2.16322       -0.25177
C         -0.32164        3.31361        0.11849
C          1.69450        2.29806       -0.76661
C          0.25327        4.57512       -0.00877
H         -1.33424        3.22528        0.50040
C          2.26825        3.56347       -0.89452
H          2.25777        1.42296       -1.07300
C          1.55162        4.69809       -0.51340
H         -0.29795        5.46196        0.28643
H          3.27381        3.66465       -1.28955
C         -2.10232        0.76413       -0.32785
C         -3.07612        0.32231        0.57758
C         -2.51221        1.37441       -1.52587
C         -4.42949        0.48701        0.29278
H         -2.78468       -0.15946        1.50408
C         -3.86379        1.54760       -1.80729
H         -1.77044        1.72516       -2.23865
C         -4.82406        1.09858       -0.89699
H         -5.17907        0.13434        0.99282
H         -4.17492        2.02554       -2.73027
C         -0.18544        0.09300        1.73614
C         -0.24729       -1.25875        2.11474
C         -0.05188        1.07492        2.72714
C         -0.19274       -1.62034        3.45861
H         -0.33491       -2.02885        1.35339
C          0.01189        0.71405        4.07205
H          0.00871        2.12334        2.45514
C         -0.06271       -0.63185        4.43684
H         -0.24895       -2.66452        3.74768
H          0.11119        1.47563        4.83842
O          1.00499       -5.32327       -2.29607
C         -2.11719       -2.68362       -1.25874
C         -2.71752       -3.26933       -0.12650
C         -2.93777       -2.04927       -2.21181
C         -4.10132       -3.22831        0.03687
H         -2.09070       -3.76575        0.60854
C         -4.31761       -2.01531       -2.04108
H         -2.47686       -1.58326       -3.07716
C         -4.90671       -2.60125       -0.91677
H         -4.55074       -3.68844        0.91309
H         -4.93940       -1.50604       -2.76966
H         -5.98329       -2.55066       -0.78327
C          2.00585       -6.26240       -2.63082
H          1.50437       -7.21842       -2.80211
H          2.54859       -5.97399       -3.54685
H          2.74204       -6.38385       -1.81844
C          2.14655        6.06757       -0.70791
C          0.06468       -1.02473        5.88490
C         -6.28501        1.18093       -1.23770
F         -7.05162        1.35003       -0.13842
F         -6.55325        2.19502       -2.08799
F         -6.71835        0.04058       -1.83997
F          1.71067        6.93968        0.22893
F          3.49575        6.04343       -0.64915
F          1.81050        6.58318       -1.91296
F         -0.40359       -0.06114        6.70885
F          1.35548       -1.24328        6.22415
F         -0.61380       -2.16158        6.15623
