45
P(c1ccc(cc1)C(F)(F)F)(c1ccc(cc1)C(F)(F)F)c1ccc(cc1)C(F)(F)F.F
P          0.33371        0.01125       -2.03409
C         -0.48101        1.44019       -1.18010
C         -1.39244        1.30499       -0.12077
C         -0.15480        2.72883       -1.63627
C         -1.96079        2.43396        0.46876
H         -1.67289        0.33034        0.26055
C         -0.71261        3.85712       -1.04062
H          0.54208        2.85190       -2.46182
C         -1.61930        3.70828        0.01291
H         -2.65952        2.31481        1.29026
H         -0.44773        4.85007       -1.38898
C          1.92965       -0.12163       -1.10508
C          2.94714       -0.89584       -1.68656
C          2.17271        0.49522        0.13232
C          4.17211       -1.06341       -1.04440
H          2.78035       -1.37148       -2.64986
C          3.40079        0.33878        0.77314
H          1.39961        1.09582        0.60078
C          4.39866       -0.44286        0.18636
H          4.95006       -1.67188       -1.49368
H          3.58141        0.81174        1.73297
C         -0.64156       -1.38401       -1.30561
C         -1.89069       -1.65112       -1.89108
C         -0.25129       -2.11694       -0.17597
C         -2.75905       -2.57866       -1.32445
H         -2.19796       -1.10793       -2.78107
C         -1.11197       -3.05388        0.39131
H          0.71240       -1.93348        0.28687
C         -2.37005       -3.27053       -0.17395
H         -3.73393       -2.76245       -1.76417
H         -0.81791       -3.59895        1.28244
C          5.74365       -0.56548        0.85067
C         -3.36267       -4.13247        0.54227
C         -2.27436        4.92354        0.61084
F          5.64939       -0.47440        2.19587
F          6.58582        0.41361        0.44651
F          6.34068       -1.74326        0.56070
F         -1.46145        6.00391        0.56846
F         -2.62351        4.72501        1.90087
F         -3.40406        5.25649       -0.05731
F         -2.92002       -0.80936        1.76174
H         -3.35634       -1.62812        1.61094
F         -2.79193       -5.11866        1.25378
F         -4.06947       -3.36408        1.45314
F         -4.28080       -4.67522       -0.27443
