86
O1C(C(O[B]1)(C)C)(C)C.[Cu]/C(=[C]/c1ccccc1)/COC.P(c1ccc(cc1)C(F)(F)F)(c1ccc(cc1)C(F)(F)F)c1ccc(cc1)C(F)(F)F
O          2.71479        1.42376        1.24345
O          2.61686        1.63976       -1.03585
C          3.99847        0.94002        0.74012
C          4.03724        1.54374       -0.70936
C          5.09793        1.42931        1.67610
C          3.92549       -0.59236        0.74942
C          4.59949        2.96788       -0.76110
C          4.72782        0.67015       -1.75284
B          1.90886        1.66420        0.14376
Cu        -0.09539        1.47930        0.13858
P         -0.63103       -0.60210       -0.10492
C          1.41944        4.35631        0.88466
C         -0.85784        3.25569        0.33528
C          0.44978        3.29110        0.47530
H          5.06215        2.51368        1.80095
H          6.08574        1.15208        1.29051
H          4.97467        0.97035        2.66240
H          3.13851       -0.95264        0.08059
H          3.69148       -0.93271        1.76325
H          4.87532       -1.04317        0.44412
H          4.39774        3.39151       -1.74887
H          5.68058        2.97714       -0.58557
H          4.11022        3.60918       -0.02624
H          4.65475        1.14993       -2.73438
H          4.28370       -0.32284       -1.82884
H          5.79081        0.55561       -1.51071
H          2.23713        3.95789        1.50367
H          0.85863        5.09118        1.48920
C         -0.56361       -1.46699        1.51548
C         -1.46245       -2.47423        1.89084
C          0.46218       -1.08628        2.39892
C         -1.33104       -3.10593        3.12762
H         -2.27093       -2.76403        1.22742
C          0.59357       -1.72168        3.63058
H          1.15078       -0.29135        2.12430
C         -0.30161       -2.73219        3.99307
H         -2.03131       -3.87978        3.42382
H          1.37940       -1.42358        4.31679
C         -2.28324       -0.97693       -0.81415
C         -2.59851       -2.21237       -1.40085
C         -3.25158        0.03580       -0.76230
C         -3.87618       -2.43999       -1.90637
H         -1.84436       -2.99080       -1.47510
C         -4.53150       -0.19333       -1.26545
H         -2.98423        1.00549       -0.34749
C         -4.84163       -1.43104       -1.83256
H         -4.12317       -3.38989       -2.36897
H         -5.28032        0.59094       -1.23444
C          0.55866       -1.52909       -1.15445
C          1.09648       -0.84940       -2.25873
C          1.01350       -2.81847       -0.84674
C          2.07714       -1.44866       -3.04048
H          0.78629        0.16856       -2.47229
C          2.01351       -3.41208       -1.61786
H          0.61521       -3.34873        0.01291
C          2.54794       -2.72220       -2.70675
H          2.50423       -0.91709       -3.88419
H          2.38559       -4.39995       -1.36854
C          2.74383        6.11583        0.04970
H          2.16601        6.88304        0.59055
H          3.61140        5.83660        0.67090
H          3.10519        6.53793       -0.89170
O          1.94652        4.99518       -0.27676
C         -1.88771        4.27736        0.41698
C         -3.15818        3.98172        0.94484
C         -1.64131        5.58688       -0.04793
C         -4.14089        4.96561        1.03418
H         -3.35354        2.97047        1.29358
C         -2.63531        6.56177        0.01996
H         -0.66867        5.81357       -0.47702
C         -3.88574        6.25871        0.56701
H         -5.11243        4.72270        1.45769
H         -2.43316        7.56383       -0.35084
H         -4.65774        7.02170        0.62244
C          3.71875       -3.28311       -3.46559
C         -0.11837       -3.45759        5.30014
C         -6.23836       -1.70555       -2.32637
F          4.87975       -2.73719       -3.02251
F          3.82908       -4.62077       -3.32491
F          3.63866       -3.01170       -4.78600
F         -6.99349       -2.27671       -1.35928
F         -6.86960       -0.57559       -2.70856
F         -6.23864       -2.55368       -3.37867
F         -1.28499       -3.94899        5.77137
F          0.40365       -2.65298        6.25083
F          0.72660       -4.50639        5.16190
