65
O1C(C(O[B]1)(C)C)(C)C.[Cu]/C(=[C]/c1ccccc1)/COC.P(CC)(CC)CC
O          0.16148       -1.54794        1.08877
O          0.12881       -1.42506       -1.19824
C          0.12175       -2.92889        0.63101
C          0.48338       -2.80675       -0.90024
C          1.11673       -3.73352        1.46378
C         -1.30722       -3.42660        0.88216
C          1.97904       -2.95968       -1.19619
C         -0.32558       -3.71266       -1.82698
B          0.07841       -0.71889       -0.01159
Cu        -0.64778        1.15732       -0.02015
P         -2.79793        0.85029       -0.08241
C          1.58136        3.64775       -0.22082
C          1.29757        1.11308        0.02988
C          0.87976        2.34982       -0.12820
H          2.11284       -3.28859        1.42231
H          1.17470       -4.76968        1.11084
H          0.79338       -3.74556        2.50994
H         -2.02999       -2.84651        0.29982
H         -1.54499       -3.29866        1.94299
H         -1.42285       -4.48462        0.62428
H          2.16082       -2.68001       -2.23826
H          2.30942       -3.99406       -1.05050
H          2.58234       -2.30440       -0.56661
H         -0.02430       -3.53303       -2.86382
H         -1.39817       -3.51806       -1.75063
H         -0.14404       -4.76883       -1.59670
H          1.25270        4.29912        0.60962
H          1.27805        4.16247       -1.15129
C          2.57942        0.39695        0.13299
C          2.93537       -0.31655        1.28962
C          3.48418        0.43679       -0.94112
C          4.16446       -0.97194        1.36886
H          2.23117       -0.36825        2.11257
C          4.70788       -0.22637       -0.86298
H          3.21649        1.00075       -1.82832
C          5.05300       -0.93627        0.29042
H          4.42737       -1.51380        2.27423
H          5.39426       -0.18977       -1.70533
H          6.00624       -1.45521        0.34919
C          3.67334        4.73541       -0.28672
H          4.74645        4.52444       -0.25933
H          3.43926        5.26360       -1.22822
H          3.42313        5.40993        0.55105
O          3.00067        3.50274       -0.19141
C         -3.35734        0.04427        1.49229
H         -2.88520       -0.94361        1.50568
H         -4.44289       -0.10620        1.48289
C         -3.28145       -0.31859       -1.45388
H         -3.47614        0.30813       -2.33372
H         -2.37284       -0.88854       -1.67586
C         -3.90678        2.33195       -0.27704
H         -3.53570        2.85695       -1.16561
H         -3.67165        2.98465        0.57247
C         -2.91453        0.84067        2.72744
H         -3.20451        0.31855        3.64607
H         -1.82569        0.96491        2.73418
H         -3.36830        1.83792        2.75366
C         -4.45721       -1.27138       -1.19490
H         -5.38458       -0.73924       -0.96258
H         -4.63980       -1.89010       -2.08119
H         -4.24512       -1.94841       -0.36063
C         -5.41799        2.09110       -0.38085
H         -5.95359        3.04603       -0.43573
H         -5.67194        1.51985       -1.27977
H         -5.80644        1.54600        0.48656
