87
O1C(C(O[B]1=C(COC)[C]([Cu][P](n1cccc1)(C1CCCCC1)C1CCCCC1)c1ccccc1)(C)C)(C)C
O         -3.34011       -2.45419       -0.23277
O         -1.15446       -1.76193       -0.17546
C         -2.53637       -3.64448       -0.39402
C         -1.14042       -3.17586        0.15100
C         -3.18230       -4.78498        0.38751
C         -2.51238       -3.96760       -1.89424
C         -1.02363       -3.27453        1.67762
C          0.05708       -3.84599       -0.51543
B         -2.49575       -1.36233       -0.20904
C         -4.48355        0.30395       -0.28667
C         -2.07402        1.11419       -0.10029
C         -2.98487        0.09777       -0.20744
Cu        -0.19394        0.70096       -0.02744
P          1.98895        0.42184        0.00099
H         -3.35795       -4.50435        1.42827
H         -2.54966       -5.68003        0.36355
H         -4.14868       -5.03693       -0.06059
H         -2.03404       -3.15966       -2.45719
H         -3.54282       -4.06395       -2.24911
H         -1.98330       -4.90382       -2.10177
H         -0.13062       -2.72824        1.99766
H         -0.93657       -4.31320        2.01355
H         -1.88980       -2.81721        2.16516
H          0.98812       -3.50181       -0.05421
H          0.10397       -3.61760       -1.58212
H          0.00391       -4.93346       -0.39014
H         -4.94434       -0.47681       -0.91340
H         -4.73328        1.28323       -0.72515
O         -5.03871        0.21676        1.03332
C         -6.44192        0.35315        1.03098
H         -6.92986       -0.43556        0.43326
H         -6.78032        0.27016        2.06839
H         -6.75880        1.33150        0.63032
C         -2.45873        2.54274       -0.00525
C         -1.75227        3.50562       -0.75544
C         -3.46410        3.00567        0.86921
C         -2.05897        4.86192       -0.67222
H         -0.95216        3.16452       -1.40986
C         -3.75200        4.36782        0.97307
H         -4.00861        2.28279        1.46840
C         -3.05990        5.30232        0.19965
H         -1.50592        5.57904       -1.27454
H         -4.52600        4.69998        1.66152
H         -3.28929        6.36181        0.28131
N          2.82561        1.87134        0.46602
C          2.18851        2.96532        1.04980
C          4.18120        2.17118        0.34790
C          3.12923        3.93267        1.29948
H          1.11910        2.94447        1.20939
C          4.39057        3.43080        0.85322
H          4.86843        1.46771       -0.09684
H          2.93621        4.89979        1.74354
H          5.34304        3.94284        0.89373
C          2.58174       -0.89291        1.16978
C          4.09004       -1.19611        1.16648
C          2.07534       -0.56401        2.59095
H          2.04051       -1.78568        0.82339
C          4.42090       -2.32991        2.15216
H          4.63785       -0.29244        1.46304
H          4.42947       -1.46470        0.15798
C          2.42727       -1.68888        3.57722
H          2.53398        0.37663        2.92617
H          0.99012       -0.39859        2.56949
C          3.93189       -1.99599        3.56916
H          5.50183       -2.51759        2.15258
H          3.93897       -3.25783        1.80975
H          2.09604       -1.41342        4.58581
H          1.87187       -2.59708        3.30047
H          4.15514       -2.82393        4.25329
H          4.48172       -1.11954        3.94221
C          2.68823        0.03504       -1.67103
C          2.12050       -1.31805       -2.15175
C          2.31665        1.17452       -2.64497
H          3.78257       -0.03855       -1.60871
C          2.54820       -1.62527       -3.59553
H          1.02325       -1.28879       -2.08792
H          2.44954       -2.12765       -1.48976
C          2.75609        0.84794       -4.07988
H          1.22563        1.31554       -2.62135
H          2.76559        2.11614       -2.30890
C          2.16498       -0.48793       -4.55245
H          2.09433       -2.57065       -3.91846
H          3.63810       -1.77204       -3.62517
H          2.45397        1.66114       -4.75093
H          3.85429        0.79561       -4.12130
H          2.50313       -0.71773       -5.57033
H          1.06911       -0.40323       -4.59275
