87
O1C(C(O[B]1)(C)C)(C)C.[Cu]/C(=[C]/c1ccccc1)/COC.P(C1CCCCC1)(C1CCCCC1)n1cccc1
O         -1.30440       -1.48626       -1.16073
O         -1.47367       -1.45328        1.12397
C         -1.57943       -2.86554       -0.78498
C         -2.02039       -2.74638        0.73015
C         -2.65616       -3.40290       -1.72549
C         -0.27047       -3.63835       -0.98723
C         -3.53690       -2.67019        0.93284
C         -1.43003       -3.80907        1.65704
B         -1.17301       -0.73293       -0.01304
Cu        -0.06979        0.96784        0.05434
P          2.02317        0.46752        0.11208
C         -1.84797        3.79804       -0.00050
C         -1.99840        1.24432       -0.09698
C         -1.37383        2.39776        0.00687
H         -3.54553       -2.77018       -1.70870
H         -2.94148       -4.42479       -1.45067
H         -2.26970       -3.41898       -2.74992
H          0.51700       -3.25432       -0.33320
H          0.05857       -3.51074       -2.02361
H         -0.39509       -4.70832       -0.79006
H         -3.73901       -2.41974        1.97858
H         -4.01620       -3.62885        0.70597
H         -3.98788       -1.89482        0.31333
H         -1.75543       -3.61374        2.68371
H         -0.33787       -3.80279        1.64497
H         -1.77702       -4.80920        1.37333
H         -1.37442        4.33791       -0.84144
H         -1.50228        4.30400        0.91991
C         -3.39209        0.78061       -0.22854
C         -3.85961        0.20627       -1.42175
C         -4.28550        0.94126        0.84232
C         -5.19214       -0.18936       -1.54244
H         -3.16470        0.05947       -2.24149
C         -5.61444        0.53726        0.72239
H         -3.92549        1.39241        1.76124
C         -6.07348       -0.03090       -0.46913
H         -5.54190       -0.62424       -2.47557
H         -6.29384        0.66577        1.56124
H         -7.10932       -0.34693       -0.56090
C         -3.72391        5.22314       -0.09922
H         -4.81466        5.19295       -0.17567
H         -3.44720        5.75467        0.82845
H         -3.32403        5.79883       -0.95236
O         -3.26670        3.89142       -0.10060
C          2.46549       -0.66643       -1.28686
C          1.99563       -0.04592       -2.61944
C          3.92841       -1.13329       -1.36978
H          1.82372       -1.53706       -1.09343
C          2.19622       -1.03385       -3.77889
H          2.56486        0.87473       -2.81051
H          0.93786        0.23531       -2.54281
C          4.11104       -2.12866       -2.52864
H          4.57551       -0.26294       -1.53683
H          4.24460       -1.59406       -0.42474
C          3.65061       -1.52076       -3.86210
H          1.89401       -0.56486       -4.72334
H          1.53035       -1.89627       -3.62713
H          5.16163       -2.43909       -2.59058
H          3.52439       -3.03572       -2.32020
H          3.76210       -2.25293       -4.67162
H          4.30189       -0.67043       -4.11240
C          2.58663       -0.33481        1.68634
C          2.17553        0.56826        2.86967
C          1.98338       -1.74744        1.83011
H          3.68199       -0.41673        1.66591
C          2.54322       -0.07245        4.21593
H          1.08799        0.72747        2.82613
H          2.64556        1.55361        2.76964
C          2.34684       -2.37384        3.18605
H          0.89231       -1.68129        1.74267
H          2.33606       -2.39707        1.01928
C          1.92369       -1.47074        4.35297
H          2.21215        0.57703        5.03554
H          3.63792       -0.14892        4.29570
H          1.87097       -3.35913        3.27141
H          3.43323       -2.54210        3.23115
H          2.21133       -1.92496        5.30931
H          0.82772       -1.38092        4.35818
N          3.10326        1.83137       -0.02938
C          4.48540        1.87271        0.14226
C          2.67354        3.10411       -0.39535
C          4.91516        3.15190       -0.11372
H          5.03639        0.99309        0.43774
C          3.76757        3.93122       -0.45612
H          1.61759        3.28000       -0.54750
H          5.93987        3.49545       -0.05533
H          3.75029        4.98340       -0.70700
