59
CC1(C)OB([Cu][C]2[N@](C3CCCC3)CC[N@]2C2CCCC2)OC1(C)C
C         -3.91615       -2.13872       -1.49557
C         -3.76481       -1.64898       -0.04734
C         -4.51944       -2.58109        0.89850
O         -2.34908       -1.70213        0.27013
B         -1.77990       -0.44130        0.06573
Cu         0.15841        0.01765        0.07789
C          2.04914        0.60232        0.08894
N          3.17060       -0.16008        0.09013
C          3.21204       -1.58783        0.41886
C          2.05253       -2.42007       -0.17370
C          2.62553       -3.85332       -0.37689
C          4.11806       -3.77652        0.03215
C          4.47369       -2.29029       -0.11545
C          4.38177        0.65590        0.31989
C          3.88545        2.05625       -0.04565
N          2.42697        1.89383        0.08257
C          1.53053        3.04586       -0.09566
C          0.54416        3.25848        1.07607
C         -0.61152        4.04290        0.44031
C         -0.79195        3.34406       -0.92168
C          0.64770        3.01401       -1.38706
O         -2.80277        0.49167       -0.15772
C         -4.08668       -0.12396        0.12501
C         -4.45673        0.25778        1.56624
C         -5.12657        0.43396       -0.84450
H         -3.38028       -1.48122       -2.18591
H         -4.96722       -2.19154       -1.79956
H         -3.47976       -3.13887       -1.57379
H         -4.29571       -2.35662        1.94318
H         -4.22287       -3.61694        0.70623
H         -5.60178       -2.49960        0.74348
H          3.20711       -1.68515        1.51779
H          1.16679       -2.40703        0.46568
H          1.75182       -1.97764       -1.12883
H          2.53036       -4.15026       -1.42650
H          2.08188       -4.59837        0.21135
H          4.76212       -4.42728       -0.56731
H          4.24146       -4.07767        1.08016
H          5.38828       -2.01413        0.42008
H          4.60664       -2.02814       -1.17432
H          5.21478        0.32043       -0.30026
H          4.68133        0.58582        1.37678
H          4.14388        2.32770       -1.07931
H          4.25728        2.83739        0.62309
H          2.19746        3.91293       -0.14516
H          1.01677        3.76013        1.92771
H          0.17864        2.28272        1.41688
H         -0.32810        5.09642        0.30346
H         -1.52011        4.02113        1.05025
H         -1.33779        3.95652       -1.64672
H         -1.35653        2.41748       -0.77489
H          0.70060        2.02973       -1.86133
H          1.01612        3.75013       -2.11054
H         -5.44730       -0.11771        1.84482
H         -3.71859       -0.13187        2.27284
H         -4.46174        1.34876        1.64902
H         -5.27257        1.50140       -0.65112
H         -4.80607        0.32173       -1.88204
H         -6.09022       -0.07276       -0.71571
