42
CC1(C)OB([Cu][P](C)(c2ccc(Cl)cc2)C)OC1(C)C
C          4.99218       -0.07403        1.74194
C          4.68665       -0.12060        0.23768
C          5.92513        0.28349       -0.55886
O          3.63276        0.85141       -0.00816
B          2.40355        0.19620       -0.01076
Cu         0.60840        1.06687       -0.03090
P         -1.51419        1.91261       -0.05050
C         -1.97746        3.01904        1.35650
C         -2.80087        0.59966       -0.00919
C         -4.17576        0.88736       -0.01249
C         -5.12288       -0.13562        0.01886
C         -4.68717       -1.46365        0.05390
Cl        -5.87491       -2.75520        0.09341
C         -3.32836       -1.77845        0.05797
C         -2.39133       -0.74252        0.02633
C         -1.98388        2.93378       -1.51849
O          2.60096       -1.18483        0.00278
C          4.01237       -1.46230       -0.21578
C          4.40503       -2.69260        0.59894
C          4.18175       -1.74975       -1.71476
H          5.82391       -0.73541        2.00707
H          5.26151        0.95096        2.01295
H          4.11336       -0.35894        2.32720
H          5.69354        0.42013       -1.61683
H          6.31501        1.23110       -0.17465
H          6.71124       -0.47470       -0.46434
H         -1.31114        3.88678        1.35751
H         -1.84382        2.47860        2.29709
H         -3.01430        3.36151        1.28174
H         -4.52514        1.91615       -0.03973
H         -6.18430        0.08784        0.01627
H         -3.00765       -2.81406        0.08538
H         -1.33074       -0.98273        0.02932
H         -1.31784        3.79995       -1.57409
H         -1.85448        2.33846       -2.42596
H         -3.02051        3.27993       -1.45923
H          4.13917       -2.57722        1.65139
H          5.48291       -2.87831        0.52545
H          3.87913       -3.57139        0.21307
H          3.90199       -0.87789       -2.31274
H          3.51957       -2.57583       -1.99011
H          5.21139       -2.03147       -1.95965
