57
CC1(C)OB([Cu][C]2N(C(C)(C)C)CCN2C(C)(C)C)OC1(C)C
C         -5.01066        1.74369        0.28604
C         -4.09319        0.70143       -0.35020
C         -4.35959        0.62308       -1.86112
O         -2.71435        1.12547       -0.18596
B         -1.90380       -0.00011       -0.00010
Cu         0.08743       -0.00008       -0.00015
C          2.07341        0.00003       -0.00017
N          2.86471       -1.09539        0.08037
C          2.36835       -2.49955       -0.07883
C          1.31451       -2.80233        1.00060
C          1.77208       -2.67407       -1.48903
C          3.54428       -3.47559        0.10702
C          4.28116       -0.74620       -0.15401
C          4.28097        0.74660        0.15482
N          2.86458        1.09558       -0.08036
C          2.36797        2.49965        0.07871
C          1.77161        2.67416        1.48889
C          1.31411        2.80217       -1.00076
C          3.54374        3.47587       -0.10718
O         -2.71436       -1.12565        0.18591
C         -4.09318       -0.70156        0.35031
C         -4.35939       -0.62319        1.86126
C         -5.01075       -1.74382       -0.28580
H         -4.93420        2.68548       -0.26640
H         -6.05531        1.41216        0.25623
H         -4.73339        1.93988        1.32357
H         -3.70889       -0.11891       -2.33238
H         -5.40280        0.36838       -2.07740
H         -4.13894        1.59780       -2.30627
H          0.42437       -2.17497        0.89173
H          1.73216       -2.63907        1.99927
H          0.99571       -3.84658        0.91851
H          2.51363       -2.42787       -2.25769
H          1.45026       -3.70966       -1.64106
H          0.90360       -2.02156       -1.62062
H          4.00453       -3.36735        1.09486
H          4.31595       -3.35315       -0.65959
H          3.16524       -4.49804        0.02731
H          4.95699       -1.30727        0.49158
H          4.55121       -0.94175       -1.20225
H          4.55039        0.94222        1.20321
H          4.95707        1.30775       -0.49041
H          2.51317        2.42814        2.25759
H          1.44959        3.70970        1.64084
H          0.90325        2.02149        1.62046
H          1.73180        2.63887       -1.99941
H          0.99516        3.84638       -0.91877
H          0.42405        2.17470       -0.89185
H          4.00408        3.36757       -1.09498
H          3.16451        4.49828       -0.02764
H          4.31538        3.35369        0.65950
H         -4.13873       -1.59791        2.30639
H         -5.40258       -0.36845        2.07766
H         -3.70862        0.11878        2.33244
H         -6.05540       -1.41229       -0.25582
H         -4.73366       -1.94000       -1.32337
H         -4.93420       -2.68560        0.26663
