89
CC1(C)OB([Cu][C]2N(c3c(C(C)C)cccc3C(C)C)CCN2c2c(C(C)C)cccc2C(C)C)OC1(C)C
C         -5.58342       -0.64455       -2.25302
C         -4.61475       -1.03487       -1.13873
C         -4.69737       -2.54643       -0.87748
O         -3.25829       -0.75654       -1.57621
B         -2.49644       -0.34475       -0.48057
Cu        -0.52703       -0.07564       -0.37623
C          1.36647        0.23369        0.00334
N          2.25855       -0.70277        0.36623
C          2.00949       -2.11402        0.32567
C          1.61618       -2.75720        1.51666
C          1.35598       -1.96925        2.79464
C          1.98411       -2.61721        4.04072
C         -0.16012       -1.75143        2.97946
C          1.38396       -4.13704        1.46605
C          1.53394       -4.84510        0.27344
C          1.90690       -4.18262       -0.89498
C          2.15137       -2.80289       -0.89434
C          2.47623       -2.07700       -2.19355
C          3.66151       -2.70828       -2.94592
C          1.22079       -2.00124       -3.08601
C          3.59418       -0.15033        0.67706
C          3.28938        1.35236        0.77698
N          1.96920        1.43599        0.10861
C          1.26649        2.68585        0.01869
C          0.54526        3.13775        1.14463
C          0.39371        2.30312        2.41264
C          1.01611        3.00589        3.63471
C         -1.08350        1.94067        2.66533
C         -0.08594        4.38664        1.06430
C         -0.01555        5.15181       -0.09629
C          0.67029        4.66564       -1.20917
C          1.31926        3.42327       -1.18382
C          1.93338        2.91753       -2.48942
C          1.04422        1.83463       -3.13463
C          3.39941        2.45070       -2.41991
O         -3.34362       -0.12556        0.61467
C         -4.72401       -0.17619        0.16858
C         -5.16106        1.27297       -0.09343
C         -5.57977       -0.78667        1.27650
H         -5.42886        0.38781       -2.57270
H         -6.62261       -0.76063       -1.92318
H         -5.42462       -1.29258       -3.12059
H         -5.71119       -2.85676       -0.60196
H         -4.40611       -3.07521       -1.78981
H         -4.00767       -2.84127       -0.08157
H          1.80986       -0.97984        2.67751
H          1.84883       -1.96566        4.91111
H          1.51562       -3.57837        4.27848
H          3.05721       -2.79164        3.90478
H         -0.60272       -1.25007        2.11222
H         -0.35492       -1.13867        3.86694
H         -0.67377       -2.71110        3.10750
H          1.06522       -4.66150        2.36148
H          1.34438       -5.91476        0.25199
H          1.99361       -4.74140       -1.82194
H          2.75853       -1.04872       -1.94760
H          3.90672       -2.11103       -3.83117
H          4.55294       -2.76519       -2.31149
H          3.42927       -3.72255       -3.28829
H          0.38559       -1.53126       -2.55545
H          0.90070       -3.00398       -3.39083
H          1.42689       -1.41803       -3.99037
H          3.98411       -0.57922        1.60410
H          4.29173       -0.38777       -0.13668
H          4.02533        1.98107        0.27345
H          3.19536        1.69004        1.81668
H          0.92338        1.35741        2.27140
H          2.07091        3.25094        3.46524
H          0.95023        2.36110        4.51839
H          0.49230        3.94022        3.86505
H         -1.68721        2.83754        2.84390
H         -1.51656        1.40070        1.81758
H         -1.16628        1.29972        3.54995
H         -0.64969        4.75512        1.91607
H         -0.50956        6.11839       -0.14227
H          0.69205        5.25237       -2.12387
H          1.92213        3.78289       -3.16445
H          1.00932        0.93221       -2.51906
H          1.43484        1.56064       -4.12179
H          0.01539        2.18639       -3.25538
H          3.80210        2.36136       -3.43502
H          3.48935        1.46888       -1.94872
H          4.02574        3.16365       -1.87268
H         -6.21751        1.33452       -0.37645
H         -4.55540        1.72419       -0.88434
H         -5.01030        1.85442        0.82105
H         -5.18605       -1.75278        1.59819
H         -5.58593       -0.11980        2.14450
H         -6.61445       -0.92126        0.93977
