53
CC1(C)OB([Cu][C]2N(c3ccccc3)CCN2c2ccccc2)OC1(C)C
C          5.09799        1.20531       -1.29192
C          4.18011        0.76963       -0.15157
C          4.44531        1.63133        1.09221
O          2.80116        1.00459       -0.54143
B          1.99169        0.00023        0.00004
Cu        -0.00119        0.00007       -0.00004
C         -1.98229       -0.00017       -0.00004
N         -2.78838       -1.09001        0.00300
C         -2.35771       -2.44511        0.02327
C         -1.21531       -2.82466        0.74397
C         -0.79815       -4.15498        0.73472
C         -1.52701       -5.12649        0.04102
C         -2.68149       -4.75235       -0.64997
C         -3.09764       -3.41829       -0.66409
C         -4.21529       -0.74365       -0.17644
C         -4.21545        0.74270        0.17679
N         -2.78868        1.08946       -0.00295
C         -2.35837        2.44467       -0.02329
C         -3.09853        3.41768        0.66407
C         -2.68271        4.75185        0.64989
C         -1.52837        5.12627       -0.04118
C         -0.79929        4.15493       -0.73488
C         -1.21611        2.82450       -0.74407
O          2.80129       -1.00403        0.54151
C          4.18020       -0.76891        0.15163
C          4.44547       -1.63057       -1.09217
C          5.09815       -1.20451        1.29195
H          6.14246        0.96060       -1.06546
H          5.02240        2.28848       -1.43015
H          4.82070        0.72667       -2.23310
H          5.48838        1.56239        1.41962
H          3.79402        1.33214        1.91818
H          4.22424        2.67475        0.84870
H         -0.65188       -2.08419        1.30105
H          0.09812       -4.42859        1.28301
H         -1.20171       -6.16238        0.04417
H         -3.26014       -5.49527       -1.19129
H         -3.98486       -3.14396       -1.22475
H         -4.51632       -0.91357       -1.21772
H         -4.84543       -1.34968        0.47804
H         -4.84591        1.34854       -0.47756
H         -4.51631        0.91255        1.21814
H         -3.98565        3.14314        1.22478
H         -3.26154        5.49463        1.19121
H         -1.20334        6.16224       -0.04437
H          0.09688        4.42875       -1.28322
H         -0.65252        2.08415       -1.30115
H          4.22458       -2.67402       -0.84865
H          3.79408       -1.33147       -1.91810
H          5.48851       -1.56146       -1.41964
H          6.14259       -0.95966        1.06549
H          4.82081       -0.72593        2.23315
H          5.02270       -2.28769        1.43015
