42
CC1(C)OB([Cu][P](C)(c2ccccc2)C)OC1(C)C
C          4.45316       -0.51407       -1.71030
C          4.15238       -0.35826       -0.21234
C          5.28819       -0.95946        0.61257
O          2.93357       -1.10573        0.05251
B          1.84803       -0.23207        0.01800
Cu        -0.07674       -0.75865        0.04207
P         -2.30733       -1.25314        0.06016
C         -2.92830       -2.16666        1.54327
C         -3.38671        0.23311       -0.01850
C         -2.78006        1.49807       -0.07552
C         -3.56189        2.65606       -0.13664
C         -4.95540        2.55995       -0.14141
C         -5.56902        1.30295       -0.08484
C         -4.78923        0.14680       -0.02375
C         -2.91753       -2.31129       -1.32819
O          2.30288        1.08603       -0.03844
C          3.73945        1.10127        0.18745
C          3.95264        1.40451        1.67778
C          4.36072        2.20671       -0.66341
H          4.52689       -1.58028       -1.94349
H          3.64695       -0.09039       -2.31572
H          5.39589       -0.02995       -1.98690
H          5.02867       -1.01278        1.67155
H          6.20362       -0.36637        0.50258
H          5.49488       -1.97646        0.26525
H         -2.39775       -3.12044        1.61942
H         -2.71649       -1.57952        2.44053
H         -4.00455       -2.35616        1.48276
H         -1.69515        1.57333       -0.07210
H         -3.08036        3.62858       -0.18051
H         -5.56351        3.45885       -0.18902
H         -6.65264        1.22499       -0.08843
H         -5.28122       -0.82167        0.01958
H         -2.38526       -3.26688       -1.30503
H         -3.99389       -2.49605       -1.25640
H         -2.70022       -1.81644       -2.27824
H          3.45703        2.34986        1.91743
H          5.01584        1.49519        1.92467
H          3.51014        0.62281        2.30157
H          4.00656        3.18145       -0.31379
H          5.45393        2.18995       -0.58316
H          4.08372        2.10602       -1.71451
