51
CC1(C)OB([Cu][P](C)(c2ccc(C(C)C)cc2)C)OC1(C)C
C          4.62443       -2.85319       -0.56552
C          4.28705       -1.59281        0.22793
C          4.46467       -1.85626        1.73053
O          2.88502       -1.26796        0.02004
B          2.73691        0.12000        0.00834
Cu         0.97840        1.06331        0.03170
P         -1.08804        2.03826        0.05856
C         -1.47137        3.09152        1.52983
C         -2.46480        0.82560        0.01841
C         -3.81686        1.20977        0.02188
C         -4.82769        0.25156       -0.00879
C         -4.52618       -1.12153       -0.04377
C         -5.62916       -2.16818       -0.07757
C         -6.48990       -2.04410       -1.34992
C         -6.50439       -2.11140        1.18962
C         -3.17754       -1.49784       -0.04684
C         -2.15757       -0.54213       -0.01642
C         -1.46775        3.18471       -1.34223
O          3.99112        0.72814       -0.02174
C          5.00468       -0.28653       -0.26056
C          6.26771        0.08659        0.51241
C          5.29278       -0.28146       -1.76909
H          5.69563       -3.07724       -0.50076
H          4.07121       -3.70383       -0.15542
H          4.34979       -2.74948       -1.61695
H          4.22457       -0.96270        2.31350
H          3.77564       -2.65127        2.03044
H          5.48621       -2.17115        1.96921
H         -2.48146        3.50982        1.47707
H         -0.74486        3.90796        1.58148
H         -1.37960        2.48752        2.43618
H         -4.08994        2.26192        0.04866
H         -5.86470        0.57644       -0.00548
H         -5.14217       -3.15177       -0.10086
H         -5.87381       -2.10689       -2.25282
H         -7.23771       -2.84414       -1.38689
H         -7.02375       -1.08712       -1.37325
H         -5.89867       -2.22220        2.09492
H         -7.03878       -1.15686        1.25761
H         -7.25234       -2.91203        1.17555
H         -2.91603       -2.55282       -0.07360
H         -1.11744       -0.86004       -0.01973
H         -2.47680        3.60151       -1.26406
H         -0.73928        4.00103       -1.34017
H         -1.37605        2.64032       -2.28559
H          6.05502        0.25253        1.57018
H          6.68727        1.01142        0.10456
H          7.02407       -0.70203        0.42355
H          5.59633        0.72726       -2.06405
H          6.09600       -0.97859       -2.03081
H          4.39647       -0.54478       -2.33769
