74
[Cu]([P](CCP(c1ccccc1)c1ccccc1)(c1ccccc1)c1ccccc1)B1OC(C(O1)(C)C)(C)C
Cu         1.03838       -0.79795       -0.29811
P         -0.96038       -1.77267        0.20365
B          2.85548       -0.07306       -0.67812
C         -2.15807       -0.83088        1.28343
C         -0.72214       -3.30025        1.20012
C         -1.95271       -2.25647       -1.25976
O          3.44585        0.95293        0.06992
O          3.70871       -0.45173       -1.70951
C         -2.80704        0.39781        0.63155
H         -2.93018       -1.52451        1.63890
H         -1.57559       -0.52999        2.16208
C          0.37498       -3.32055        2.07682
C         -1.58028       -4.40835        1.15108
C         -3.33019       -2.52722       -1.20814
C         -1.28913       -2.33465       -2.49446
C          4.82482        1.10959       -0.35330
C          4.79444        0.50721       -1.79905
P         -1.57710        1.63131       -0.09880
H         -3.44677        0.89702        1.36871
H         -3.45641        0.08573       -0.19364
C          0.59681       -4.42114        2.90546
H          1.06157       -2.47648        2.09534
C         -1.34970       -5.51214        1.97352
H         -2.41952       -4.41888        0.46207
C         -4.02543       -2.87894       -2.36580
H         -3.86699       -2.46187       -0.26568
C         -1.98492       -2.69082       -3.65070
H         -0.22745       -2.10322       -2.54439
C          5.19651        2.58821       -0.27090
C          5.68297        0.29348        0.62338
C          4.39213        1.53215       -2.86923
C          6.06488       -0.22493       -2.22452
C         -2.74758        3.04120       -0.35802
C         -0.64550        2.10508        1.42314
C         -0.26538       -5.51862        2.85456
H          1.44877       -4.42549        3.57984
H         -2.01626       -6.36915        1.92382
C         -3.35296       -2.96331       -3.58781
H         -5.09124       -3.08476       -2.31410
H         -1.45947       -2.74675       -4.59992
H          6.20506        2.76097       -0.66525
H          4.49120        3.20876       -0.82813
H          5.17978        2.91579        0.77433
H          5.48591        0.64148        1.64248
H          5.42229       -0.76796        0.57204
H          6.75347        0.40507        0.41796
H          3.48139        2.06229       -2.57400
H          5.18546        2.26588       -3.05114
H          4.18593        1.00241       -3.80441
H          6.92548        0.45502       -2.22586
H          5.94001       -0.61976       -3.23816
H          6.28283       -1.06550       -1.56197
C         -3.81273        2.86067       -1.25899
C         -2.58292        4.30186        0.23620
C          0.75434        2.11994        1.34223
C         -1.25376        2.37465        2.66280
H         -0.08834       -6.38029        3.49260
H         -3.89618       -3.23506       -4.48884
C         -4.70306        3.89828       -1.53273
H         -3.94693        1.90269       -1.75726
C         -3.46918        5.34402       -0.04712
H         -1.76352        4.47136        0.92779
C          1.53452        2.37253        2.47388
H          1.25123        1.90893        0.40249
C         -0.47700        2.63798        3.79064
H         -2.33772        2.38878        2.74602
C         -4.53471        5.14588       -0.92617
H         -5.52455        3.73498       -2.22578
H         -3.32545        6.31274        0.42498
C          0.92031        2.63052        3.69883
H          2.61545        2.34239        2.37793
H         -0.95911        2.84552        4.74280
H         -5.22467        5.95705       -1.14279
H          1.52215        2.82476        4.58314
