37
CC1(C)OB([Cu][C]2N(C)C=CN2C)OC1(C)C
C         -4.26107        1.60278        0.74287
C         -3.34311        0.76955       -0.14938
C         -3.60928        1.09946       -1.62603
O         -1.96432        1.13437        0.12290
B         -1.15365        0.00017        0.00020
Cu         0.84082        0.00011        0.00031
C          2.81102        0.00005        0.00042
N          3.65321       -1.07020       -0.07794
C          3.20180       -2.45475       -0.17864
C          4.98308       -0.67880       -0.05005
C          4.98328        0.67838        0.04884
N          3.65355        1.07007        0.07805
C          3.20244        2.45472        0.17894
O         -1.96415       -1.13412       -0.12267
C         -3.34302       -0.76952        0.14913
C         -3.60969       -1.09943        1.62572
C         -4.26056       -1.60302       -0.74335
H         -4.18546        2.65821        0.46290
H         -3.98366        1.51412        1.79502
H         -5.30555        1.29065        0.62540
H         -3.38803        2.15777       -1.79322
H         -2.95873        0.51081       -2.27892
H         -4.65259        0.91280       -1.90295
H          2.11085       -2.45684       -0.17731
H          3.56662       -3.03388        0.67453
H          3.56403       -2.90349       -1.10805
H          5.79886       -1.38329       -0.10182
H          5.79927        1.38267        0.10001
H          2.11150        2.45688        0.17949
H          3.56637        2.90383        1.10750
H          3.56582        3.03344       -0.67514
H         -4.65304       -0.91258        1.90236
H         -2.95922       -0.51090        2.27880
H         -3.38867       -2.15778        1.79297
H         -5.30528       -1.29191       -0.62532
H         -4.18382       -2.65851       -0.46394
H         -3.98365       -1.51356       -1.79556
