62
CC1(C)OB([Cu][P](OC(C)(C)C)(OC(C)(C)C)c2ccccc2)OC1(C)C
C         -5.11994       -2.03284        0.77754
C         -4.89554       -1.04530       -0.37699
C         -5.80243       -1.40242       -1.55251
O         -3.50962       -1.19115       -0.79241
B         -2.74175       -0.21405       -0.16287
Cu        -0.74991       -0.10659       -0.15161
P          1.50499        0.10486       -0.01983
O          2.10903        1.24032        0.99944
C          1.41173        2.49047        1.35412
C          0.84419        3.17068        0.10387
C          0.31023        2.16713        2.36740
C          2.51415        3.33952        1.98911
O          2.10514        0.43137       -1.50338
C          3.47785        0.54061       -2.02905
C          3.28695        1.32702       -3.32810
C          4.39273        1.30079       -1.06450
C          4.01222       -0.86609       -2.31652
C          2.42188       -1.34638        0.61440
C          3.46216       -1.26642        1.55114
C          4.11603       -2.42772        1.97022
C          3.72828       -3.67401        1.46635
C          2.67476       -3.76106        0.55009
C          2.02001       -2.60164        0.13052
O         -3.57511        0.70529        0.47633
C         -4.95019        0.45624        0.07335
C         -5.87092        0.74509        1.25678
C         -5.25789        1.42370       -1.07900
H         -4.86318       -3.03868        0.43263
H         -4.47514       -1.79201        1.62739
H         -6.16258       -2.03413        1.11294
H         -5.68739       -2.46332       -1.79514
H         -5.54847       -0.82503       -2.44345
H         -6.85365       -1.21974       -1.30071
H          0.04550        2.57430       -0.34994
H          1.62810        3.33123       -0.64184
H          0.41798        4.14088        0.37800
H         -0.14772        3.09289        2.73119
H          0.72933        1.62439        3.22008
H         -0.48133        1.55839        1.91731
H          2.94706        2.81801        2.84815
H          3.31111        3.53774        1.26618
H          2.10524        4.29574        2.33058
H          4.24692        1.45460       -3.83932
H          2.86719        2.31488       -3.11601
H          2.60047        0.79695       -3.99446
H          3.97906        2.28442       -0.83022
H          5.37285        1.43613       -1.53410
H          4.53423        0.75738       -0.12849
H          4.96197       -0.79558       -2.85769
H          3.30003       -1.42020       -2.93490
H          4.18378       -1.42706       -1.39577
H          3.74994       -0.29898        1.94916
H          4.92430       -2.36089        2.69317
H          4.23726       -4.57537        1.79597
H          2.35974       -4.72836        0.16972
H          1.19321       -2.66987       -0.57317
H         -5.56719        0.18821        2.14518
H         -5.83339        1.81177        1.49883
H         -6.90780        0.48471        1.01413
H         -6.30031        1.34619       -1.40598
H         -4.60382        1.23154       -1.93413
H         -5.07521        2.44635       -0.73603
