68
CC1(C)OB([Cu][P](c2ccc(OC)cc2)(c2ccc(OC)cc2)c2ccc(OC)cc2)OC1(C)C
C          5.85486        1.16023       -1.51432
C          5.58170        0.76725       -0.05488
C          6.49735        1.55726        0.87760
O          4.20149        1.12591        0.22688
B          3.39392        0.00126        0.05123
Cu         1.39916        0.00790        0.03728
P         -0.88627        0.00559       -0.00052
C         -1.65416       -1.11264        1.23081
C         -0.98249       -1.30542        2.44516
C         -1.51450       -2.11852        3.44966
C         -2.74013       -2.76525        3.23478
O         -3.35148       -3.58400        4.13689
C         -2.71842       -3.81180        5.39254
C         -3.41567       -2.59383        2.01487
C         -2.87690       -1.77816        1.02690
C         -1.63050        1.64702        0.32597
C         -2.89077        1.82921        0.92500
C         -3.40594        3.10460        1.12286
C         -2.66827        4.23311        0.72671
O         -3.26079        5.43727        0.96454
C         -2.56518        6.62568        0.59917
C         -1.40533        4.06965        0.13981
C         -0.89785        2.78109       -0.04867
C         -1.58211       -0.52235       -1.61086
C         -0.86018       -1.46707       -2.35248
C         -1.33398       -1.94697       -3.57651
C         -2.55067       -1.46513       -4.08061
O         -3.10719       -1.85510       -5.26216
C         -2.42183       -2.81972       -6.05544
C         -3.27589       -0.50512       -3.35506
C         -2.79524       -0.04094       -2.13628
O          4.19319       -1.13025       -0.11750
C          5.57383       -0.78374        0.17671
C          6.49081       -1.58201       -0.74739
C          5.83018       -1.17918        1.63855
H          6.89859        0.98147       -1.79432
H          5.63864        2.22566       -1.63616
H          5.20530        0.60328       -2.19541
H          6.42671        2.62408        0.64374
H          7.54113        1.24655        0.75138
H          6.21449        1.42362        1.92346
H         -0.02212       -0.82196        2.60915
H         -0.96502       -2.24592        4.37450
H         -1.73806       -4.28836        5.26462
H         -3.37968       -4.48435        5.94035
H         -2.60086       -2.87708        5.95579
H         -4.35653       -3.11379        1.86521
H         -3.40623       -1.66721        0.08517
H         -3.46846        0.96881        1.24978
H         -4.37539        3.25515        1.58706
H         -2.37414        6.66028       -0.48112
H         -1.61567        6.71521        1.14224
H         -3.22158        7.45100        0.87787
H         -0.80825        4.92256       -0.15930
H          0.09133        2.66050       -0.48456
H          0.09362       -1.82954       -1.97573
H         -0.74690       -2.67560       -4.12231
H         -1.43544       -2.45252       -6.36648
H         -2.30638       -3.76957       -5.51770
H         -3.04512       -2.97558       -6.93687
H         -4.20889       -0.13705       -3.76980
H         -3.36325        0.70976       -1.59494
H          6.40789       -2.64816       -0.51450
H          6.21911       -1.44534       -1.79583
H          7.53622       -1.28115       -0.61130
H          5.17985       -0.61584        2.31366
H          5.60274       -2.24251        1.75829
H          6.87295       -1.01010        1.92797
