56
CC1(C)OB([Cu][P](c2ccc(F)cc2)(c2ccc(F)cc2)c2ccc(F)cc2)OC1(C)C
C          5.60146        1.49356        1.20835
C          5.34025        0.74851       -0.10883
C          6.25342        1.29140       -1.20547
O          3.95724        1.01491       -0.47541
B          3.16215       -0.04040       -0.03456
Cu         1.16768       -0.04144       -0.03584
P         -1.11641       -0.00735       -0.00712
C         -1.86919       -1.28523        1.07355
C         -1.14463       -1.67234        2.21430
C         -1.65940       -2.61978        3.09977
C         -2.90079       -3.17977        2.81699
F         -3.40682       -4.10653        3.66784
C         -3.63939       -2.83614        1.68971
C         -3.11383       -1.88162        0.81626
C         -1.90184       -0.26850       -1.64519
C         -1.26039       -1.15234       -2.53052
C         -1.80355       -1.42512       -3.78621
C         -2.98756       -0.78867       -4.14428
F         -3.51957       -1.04143       -5.36576
C         -3.64200        0.10502       -3.30367
C         -3.09000        0.36173       -2.04652
C         -1.80727        1.58266        0.59495
C         -3.01005        1.68431        1.31180
C         -3.48796        2.92933        1.72622
C         -2.74453        4.06199        1.41176
F         -3.20461        5.27302        1.81247
C         -1.54343        4.00078        0.71305
C         -1.07529        2.74904        0.31181
O          3.96299       -1.08927        0.41024
C          5.34571       -0.81239        0.05036
C          6.25756       -1.34852        1.15146
C          5.61889       -1.55520       -1.26548
H          4.95163        1.11859        2.00408
H          6.64438        1.39732        1.52824
H          5.37856        2.55432        1.06097
H          5.97804        0.89953       -2.18639
H          7.29902        1.03226       -1.00254
H          6.17205        2.38203       -1.24380
H         -0.16544       -1.23916        2.40299
H         -1.11376       -2.93329        3.98299
H         -4.59680       -3.31218        1.50728
H         -3.67561       -1.61265       -0.07299
H         -0.32415       -1.62189       -2.23912
H         -1.32247       -2.10274       -4.48298
H         -4.55659        0.58501       -3.63476
H         -3.58667        1.06453       -1.38489
H         -3.57577        0.79166        1.56002
H         -4.41243        3.02982        2.28459
H         -0.99164        4.91105        0.50566
H         -0.12698        2.67586       -0.21497
H          7.30230       -1.08225        0.95329
H          5.97516       -0.95801        2.13092
H          6.18345       -2.43965        1.18983
H          5.40412       -2.61778       -1.11930
H          4.96973       -1.18507       -2.06403
H          6.66241       -1.45022       -1.58072
