56
CC1(C)OB([Cu][P](c2ccccc2)(c2ccccc2)c2ccccc2)OC1(C)C
C          5.26069        1.48393        1.27611
C          5.00091        0.77962       -0.06360
C          5.91570        1.35613       -1.14180
O          3.61899        1.05574       -0.42314
B          2.82172       -0.01179       -0.01189
Cu         0.82723       -0.01609       -0.01169
P         -1.45752       -0.00466       -0.00156
C         -2.21744        0.17440       -1.66438
C         -1.56338       -0.45070       -2.73912
C         -2.09823       -0.38126       -4.02692
C         -3.28373        0.32528       -4.25502
C         -3.93099        0.96272       -3.19213
C         -3.40181        0.88877       -1.90048
C         -2.20989       -1.53157        0.68768
C         -3.44039       -2.04980        0.25596
C         -3.96054       -3.20520        0.84571
C         -3.25735       -3.85084        1.86768
C         -2.02541       -3.34468        2.29466
C         -1.50005       -2.19411        1.70285
C         -2.18093        1.36302        0.98825
C         -3.37115        1.24280        1.72151
C         -3.86972        2.33697        2.43429
C         -3.18555        3.55634        2.42024
C         -1.99366        3.67922        1.69850
C         -1.48923        2.58595        0.99142
O          3.62644       -1.07262        0.40213
C          5.00732       -0.78463        0.04843
C          5.92234       -1.35327        1.13063
C          5.27923       -1.48654       -1.29021
H          4.61183        1.08238        2.05949
H          6.30410        1.38060        1.59266
H          5.03457        2.54814        1.16184
H          6.96118        1.09090       -0.94561
H          5.83404        2.44748       -1.14691
H          5.64136        0.99446       -2.13461
H         -0.63028       -0.98135       -2.56500
H         -1.58450       -0.86725       -4.85129
H         -3.69595        0.38660       -5.25819
H         -4.84707        1.51995       -3.36705
H         -3.90671        1.39251       -1.08173
H         -3.98790       -1.55907       -0.54326
H         -4.91269       -3.60169        0.50431
H         -3.66273       -4.75041        2.32212
H         -1.46832       -3.85033        3.07798
H         -0.53089       -1.81376        2.01719
H         -3.90454        0.29729        1.74356
H         -4.79050        2.23500        3.00183
H         -3.57430        4.40429        2.97695
H         -1.45137        4.62026        1.69466
H         -0.55092        2.67413        0.44867
H          6.96645       -1.07972        0.93870
H          5.64100       -0.99321        2.12211
H          5.84955       -2.44524        1.13579
H          5.06163       -2.55264       -1.17725
H          4.63069       -1.09008       -2.07647
H          6.32315       -1.37406       -1.60198
