87
CC1(C)OB([Cu][C]2N(c3c(C(C)C)cccc3C(C)C)C=CN2c2c(C(C)C)cccc2C(C)C)OC1(C)C
C         -5.07226        1.07591       -1.43873
C         -4.74221       -0.28259       -0.80146
C         -5.60669       -1.37519       -1.42729
O         -3.34815       -0.55940       -1.09622
B         -2.55905       -0.15395       -0.01414
Cu        -0.57214       -0.04535       -0.00682
C          1.37497        0.07642       -0.00202
N          2.28713       -0.93598       -0.00959
C          1.91600       -2.32821       -0.01767
C          1.69303       -2.95460       -1.25694
C          1.76409       -2.18983       -2.57287
C          0.34201       -1.93734       -3.11486
C          2.64600       -2.89495       -3.61920
C          1.32132       -4.30534       -1.23462
C          1.17179       -4.98822       -0.02825
C          1.37656       -4.33054        1.18459
C          1.74937       -2.98080        1.21763
C          1.87174       -2.23632        2.54184
C          2.73239       -2.98764        3.57266
C          0.46746       -1.92722        3.10124
C          3.59243       -0.45705        0.00488
C          3.50164        0.90009        0.02407
N          2.14423        1.20107        0.01837
C          1.59057        2.53131        0.03054
C          1.36067        3.16925       -1.20249
C          1.60251        2.45953       -2.52930
C          2.35679        3.33242       -3.54743
C          0.26205        1.95721       -3.10495
C          0.81030        4.45652       -1.16572
C          0.49634        5.06744        0.04846
C          0.71303        4.39740        1.25160
C          1.26220        3.10838        1.27017
C          1.41357        2.34861        2.58231
C          0.02813        1.93046        3.11602
C          2.20474        3.14559        3.63514
O         -3.38884        0.16950        1.06559
C         -4.74695       -0.24583        0.76604
C         -4.94101       -1.63060        1.40256
C         -5.71904        0.75439        1.38849
H         -4.84557        1.02482       -2.50788
H         -4.45980        1.86914       -1.00068
H         -6.12951        1.33592       -1.31761
H         -5.28111       -2.36942       -1.11512
H         -6.65951       -1.24479       -1.15016
H         -5.53033       -1.32343       -2.51800
H          2.21515       -1.21268       -2.37480
H         -0.27694       -1.40857       -2.38238
H         -0.15681       -2.88372       -3.35243
H          0.38362       -1.33451       -4.02894
H          2.21962       -3.85601       -3.92679
H          3.65373       -3.08243       -3.23267
H          2.73274       -2.27318       -4.51706
H          1.12958       -4.82255       -2.16952
H          0.87788       -6.03419       -0.03242
H          1.22742       -4.86792        2.11579
H          2.36269       -1.27736        2.34941
H          2.26649       -3.92956        3.88188
H          2.85865       -2.37545        4.47234
H          3.72556       -3.21881        3.17244
H         -0.07019       -2.85432        3.33055
H         -0.13199       -1.36126        2.38030
H          0.54336       -1.33856        4.02241
H          4.44489       -1.11759        0.00124
H          4.25851        1.66814        0.03960
H          2.22360        1.57932       -2.33636
H          3.30150        3.70310       -3.13498
H          1.76278        4.19823       -3.85960
H          2.58028        2.74914       -4.44741
H         -0.39865        2.80032       -3.33682
H         -0.25910        1.30936       -2.39220
H          0.42969        1.38945       -4.02720
H          0.60755        4.97930       -2.09505
H          0.06478        6.06451        0.05541
H          0.43618        4.87369        2.18695
H          1.97474        1.43094        2.38213
H          0.13595        1.33088        4.02681
H         -0.52180        1.33767        2.37751
H         -0.57862        2.81055        3.35724
H          3.18914        3.44137        3.25610
H          2.35158        2.53720        4.53441
H          1.67375        4.05489        3.93733
H         -4.25051       -2.35812        0.96654
H         -4.72397       -1.55704        2.47241
H         -5.96637       -1.99561        1.27833
H         -6.75236        0.51954        1.10691
H         -5.64246        0.70983        2.47950
H         -5.49317        1.77640        1.07790
