59
CC1(C)OB([Cu][P](c2ccc(O)cc2)(c2ccc(O)cc2)c2ccc(O)cc2)OC1(C)C
C          6.25478        1.53862       -0.90989
C          5.34334        0.79229        0.06195
C          5.61271        1.26304        1.49881
O          3.96122        1.12858       -0.23918
B          3.16040        0.00990       -0.00987
Cu         1.16569        0.00447       -0.00400
P         -1.11965       -0.00112        0.00422
C         -1.86387       -0.29223       -1.64482
C         -1.19122        0.23033       -2.76100
C         -1.70890        0.07591       -4.04626
C         -2.91029       -0.62068       -4.23100
O         -3.47060       -0.81459       -5.46286
C         -3.58480       -1.16259       -3.13013
C         -3.06173       -0.99703       -1.84950
C         -1.86582        1.57014        0.57879
C         -3.11013        2.04942        0.13500
C         -3.63358        3.24310        0.62577
C         -2.91167        3.97982        1.57337
O         -3.47455        5.14341        2.01810
C         -1.66441        3.52308        2.01790
C         -1.14769        2.32892        1.51632
C         -1.83878       -1.29400        1.08438
C         -1.10956       -2.48258        1.24792
C         -1.60410       -3.52388        2.03246
C         -2.83922       -3.38017        2.67723
O         -3.38012       -4.35733        3.46531
C         -3.57108       -2.19407        2.53861
C         -3.07042       -1.16244        1.74802
O          3.96385       -1.10771        0.21697
C          5.34457       -0.76926       -0.08807
C          6.25984       -1.51278        0.88229
C          5.61106       -1.24061       -1.52521
H          6.17305        2.61577       -0.73436
H          5.97681        1.34588       -1.94776
H          7.30100        1.24524       -0.76413
H          4.96333        0.74113        2.20743
H          5.39371        2.33297        1.56352
H          6.65629        1.10195        1.78981
H         -0.24840        0.75478       -2.62455
H         -1.17579        0.48421       -4.90202
H         -2.92356       -0.40918       -6.14847
H         -4.50738       -1.70948       -3.29550
H         -3.58817       -1.43077       -1.00461
H         -3.67207        1.49321       -0.60960
H         -4.59213        3.62073        0.28491
H         -2.89261        5.57555        2.65706
H         -1.09509        4.10281        2.74112
H         -0.16950        1.98868        1.84787
H         -0.14020       -2.59022        0.76684
H         -1.02674       -4.43791        2.15233
H         -2.79288       -5.12392        3.50061
H         -4.51934       -2.09742        3.05730
H         -3.64090       -0.24287        1.65767
H          5.98192       -1.32160        1.92050
H          7.30472       -1.21509        0.73577
H          6.18256       -2.59016        0.70618
H          5.39282       -2.31067       -1.58891
H          4.95958       -0.72006       -2.23275
H          6.65383       -1.07870       -1.81852
