56
O1C(C(O[B]1)(C)C)(C)C.[Cu]/C(=[C]/c1ccccc1)/COC.P(C)(C)C(F)(F)F
O         -1.25300        1.68408       -1.14018
O         -1.43026        0.92078        1.01162
C         -2.41417        2.37324       -0.59450
C         -2.30868        2.08406        0.95884
C         -2.30193        3.84784       -0.97644
C         -3.64265        1.74821       -1.26576
C         -1.60395        3.18924        1.75218
C         -3.62695        1.70054        1.62813
B         -0.78164        0.80322       -0.20093
Cu         0.35911       -0.86962       -0.28630
P         -0.88683       -2.51677        0.33140
C          1.65837        2.11088       -0.91532
C          2.22533       -0.30257       -0.15276
C          1.44090        0.71359       -0.43017
H         -1.36015        4.27602       -0.62835
H         -3.13097        4.42619       -0.55291
H         -2.33806        3.94534       -2.06618
H         -3.70236        0.67804       -1.05832
H         -3.55328        1.87553       -2.34914
H         -4.57073        2.22722       -0.93612
H         -1.46067        2.84505        2.78147
H         -2.19548        4.11111        1.77517
H         -0.61834        3.39209        1.32787
H         -3.45010        1.49816        2.68966
H         -4.05386        0.80114        1.17921
H         -4.35647        2.51504        1.55478
H          0.99965        2.34524       -1.76169
H          2.70774        2.18496       -1.24947
C          1.66708        4.37226       -0.25815
H          2.71340        4.52434       -0.56950
H          1.01182        4.66760       -1.09390
H          1.45612        5.01259        0.60296
O          1.43136        3.03868        0.14685
C          3.66603       -0.43523       -0.02463
C          4.32815       -1.60577       -0.43787
C          4.43488        0.60970        0.53178
C          5.71298       -1.71773       -0.33100
H          3.73509       -2.41931       -0.84754
C          5.81683        0.48406        0.66050
H          3.92672        1.50749        0.87435
C          6.46337       -0.67578        0.22286
H          6.20908       -2.62480       -0.66780
H          6.39315        1.29522        1.09911
H          7.54174       -0.77051        0.32007
C         -1.33777       -2.34392        2.10594
H         -0.43916       -2.50353        2.70872
H         -1.68270       -1.31718        2.25534
H         -2.11300       -3.05941        2.39582
C         -0.41761       -4.28573        0.11236
H          0.53462       -4.44831        0.62543
H         -1.18020       -4.95900        0.51419
H         -0.27425       -4.48975       -0.95283
C         -2.61502       -2.56545       -0.42489
F         -3.31294       -1.45204       -0.10657
F         -2.54977       -2.64880       -1.76854
F         -3.33827       -3.62572        0.01432
