56
O1C(C(O[B]1)(C)C)(C)C.[Cu]/C(=[C]/c1ccccc1)/COC.P(C)(C)C(F)(F)F
O         -0.74240       -1.63311       -1.11641
O         -0.58464       -1.48049        1.16409
C         -1.10794       -2.95257       -0.61819
C         -1.35268       -2.69718        0.92046
C         -2.33446       -3.42850       -1.39260
C          0.08911       -3.86771       -0.90405
C         -2.81076       -2.38431        1.27187
C         -0.81802       -3.78714        1.84737
B         -0.37610       -0.84970       -0.04407
Cu         0.91502        0.71566       -0.13221
P          2.82183       -0.25812       -0.06115
C         -0.44720        3.74978        0.01324
C         -0.96811        1.24224       -0.12538
C         -0.18779        2.29567       -0.03883
H         -3.14609       -2.70120       -1.32858
H         -2.68896       -4.39191       -1.00852
H         -2.07439       -3.55543       -2.44859
H          0.98111       -3.52594       -0.36914
H          0.30570       -3.84181       -1.97673
H         -0.11178       -4.90452       -0.61491
H         -2.85593       -2.04223        2.31013
H         -3.44243       -3.27356        1.17060
H         -3.21577       -1.59082        0.64273
H         -1.00447       -3.50292        2.88768
H          0.25823       -3.93348        1.72692
H         -1.32298       -4.74132        1.65828
H          0.02941        4.23371       -0.85846
H          0.04457        4.17613        0.90668
C         -2.41139        0.94995       -0.15355
C         -3.02456        0.36346       -1.27272
C         -3.20444        1.28837        0.95527
C         -4.39862        0.12249       -1.28134
H         -2.41163        0.08288       -2.12202
C         -4.57596        1.03903        0.94682
H         -2.73214        1.75536        1.81297
C         -5.17869        0.45227       -0.16927
H         -4.86044       -0.32522       -2.15790
H         -5.17598        1.30265        1.81408
H         -6.24762        0.25579       -0.17355
C         -2.09990        5.42967        0.08983
H         -3.18617        5.55679        0.10761
H         -1.67236        5.89632        0.99471
H         -1.69463        5.95983       -0.78956
O         -1.84110        4.04612        0.03712
C          3.22771       -1.31633       -1.51233
H          2.40838       -2.02522       -1.65680
H          3.29914       -0.68500       -2.40254
H          4.17147       -1.84953       -1.36603
C          3.03214       -1.34892        1.40711
H          3.09015       -0.72271        2.30212
H          2.13970       -1.97511        1.48961
H          3.93477       -1.96170        1.33087
C          4.41939        0.73812        0.05238
F          5.51829       -0.05758        0.11112
F          4.42033        1.50973        1.15746
F          4.55657        1.53737       -1.02467
