59
O1C(C(OB1[Cu]C(=C=C1[CH]C=CC=C1)COC)(C)C)(C)C.P(CC)(C)C
O          2.51659       -1.10219        0.47175
O          2.67228        0.95166       -0.51294
C          3.91706       -0.93949        0.11951
C          4.02238        0.60797       -0.10232
C          4.77762       -1.49434        1.25157
C          4.14537       -1.75023       -1.16400
C          4.29882        1.38651        1.19173
C          4.99593        1.04267       -1.19486
B          1.79317       -0.02032       -0.03950
Cu        -0.22339        0.06783       -0.06513
P         -1.14070       -2.00584       -0.00016
C          0.25385        3.09213        0.05189
C         -1.82679        1.41572        0.01744
C         -0.70622        1.97364        0.01651
H          4.51808       -1.04054        2.21055
H          5.84204       -1.31764        1.05547
H          4.62213       -2.57502        1.33770
H          3.52784       -1.36365       -1.98051
H          3.85427       -2.78986       -0.98200
H          5.19520       -1.73384       -1.47693
H          4.14707        2.45343        0.99957
H          5.32480        1.23960        1.54706
H          3.60494        1.08320        1.98175
H          4.98746        2.13412       -1.28296
H          4.71923        0.62612       -2.16587
H          6.01856        0.72742       -0.95484
H          0.96201        2.98462       -0.78413
H          0.85746        3.01247        0.97234
O         -0.43783        4.33017       -0.00202
C         -3.21007        1.04447        0.02043
C         -3.95552        1.03361       -1.17614
C         -3.83594        0.61734        1.21097
C         -5.27722        0.59337       -1.18002
H         -3.47971        1.36152       -2.09537
C         -5.15804        0.17949        1.19684
H         -3.26767        0.62874        2.13663
C         -5.88488        0.15824        0.00179
H         -5.83607        0.58729       -2.11229
H         -5.62395       -0.14784        2.12279
H         -6.91440       -0.18828       -0.00686
C          0.45008        5.42758        0.00382
H         -0.15880        6.33452       -0.04329
H          1.06222        5.45587        0.92150
H          1.13227        5.40885       -0.86286
C          0.07387       -3.28743       -0.57133
H          0.22637       -3.08706       -1.64031
H          1.01717       -3.01588       -0.08374
C         -2.71429       -2.43217       -0.87334
H         -2.59064       -2.27053       -1.94895
H         -3.50630       -1.76592       -0.52032
C         -1.53106       -2.47494        1.74436
H         -2.30685       -1.79689        2.11360
H         -1.88986       -3.50588        1.83022
C         -0.28227       -4.76018       -0.34173
H         -1.21996       -5.03937       -0.83559
H          0.50507       -5.40931       -0.74255
H         -0.38267       -4.98998        0.72471
H         -0.63553       -2.34757        2.36034
H         -3.01319       -3.47153       -0.69914
