35
O1C(C(OB1[Cu][P](C(F)(F)F)(C)C)(C)C)(C)C
O         -2.29935       -0.02819       -1.13374
O         -2.36416       -0.03243        1.15008
C         -3.70511       -0.12702       -0.77990
C         -3.70298        0.33268        0.71874
C         -4.51307        0.75453       -1.72916
C         -4.10269       -1.59887       -0.95992
C         -3.82039        1.85432        0.88394
C         -4.71688       -0.37238        1.61648
B         -1.54436       -0.10478        0.03011
Cu         0.43886       -0.29624        0.08864
P          2.68393       -0.63002        0.19648
H         -4.13942        1.78077       -1.73732
H         -5.57165        0.76757       -1.44288
H         -4.43972        0.36185       -2.74867
H         -3.52846       -2.24035       -0.28440
H         -3.87775       -1.90174       -1.98733
H         -5.17085       -1.75831       -0.77507
H         -3.60048        2.11429        1.92409
H         -4.82591        2.21431        0.63927
H         -3.09624        2.37008        0.24599
H         -4.62662        0.00444        2.64063
H         -4.54857       -1.45133        1.63981
H         -5.74057       -0.18332        1.27153
C          3.72776        0.86513       -0.27052
C          3.41997       -1.01673        1.84238
H          4.50780       -1.11442        1.78088
H          3.16323       -0.21790        2.54384
H          2.98526       -1.95107        2.20998
C          3.42615       -1.88619       -0.93126
H          4.51368       -1.92934       -0.82105
H          2.99257       -2.86396       -0.70090
H          3.17275       -1.63129       -1.96418
F          5.05796        0.61728       -0.18917
F          3.46251        1.24398       -1.53647
F          3.45713        1.89952        0.55031
