86
O1C(C(OB1/C(=C(\[Cu][P](c1ccc(cc1)C(F)(F)F)(c1ccc(cc1)C(F)(F)F)c1ccc(cc1)C(F)(F)F)/c1ccccc1)/COC)(C)C)(C)C
O         -4.62019        0.15931       -0.54905
O         -2.53269       -0.26469        0.29945
C         -4.42952       -1.27277       -0.64736
C         -3.27359       -1.51759        0.38242
C         -5.74623       -1.96994       -0.32056
C         -4.00721       -1.56690       -2.09414
C         -3.77608       -1.63860        1.82710
C         -2.35143       -2.68169        0.04193
B         -3.43561        0.71848       -0.11241
C         -4.42464        3.10271       -0.21704
C         -1.91504        2.75091        0.00285
C         -3.18125        2.24304       -0.10105
Cu        -0.42377        1.54287        0.02720
P          1.16015       -0.00857       -0.04180
H         -6.14283       -1.64184        0.64276
H         -5.61309       -3.05772       -0.29778
H         -6.48859       -1.73250       -1.08905
H         -3.06570       -1.06055       -2.32632
H         -4.77671       -1.18349       -2.77094
H         -3.87601       -2.63765       -2.28138
H         -2.92023       -1.60895        2.50900
H         -4.30918       -2.58106        1.98893
H         -4.44159       -0.80817        2.08102
H         -1.56468       -2.77411        0.79692
H         -1.87535       -2.54655       -0.92797
H         -2.91709       -3.62025        0.02363
H         -5.15677        2.62087       -0.88462
H         -4.19525        4.09882       -0.62548
C          2.86652        0.52107       -0.45052
C          3.25413        1.80625       -0.03997
C          3.78220       -0.29199       -1.13448
C          4.54457        2.26589       -0.29337
H          2.53964        2.44742        0.47076
C          5.07155        0.16951       -1.39316
H          3.48858       -1.28134       -1.47240
C          5.45117        1.44540       -0.96899
H          4.84754        3.25619        0.02955
H          5.78432       -0.45869       -1.91703
C          1.30573       -0.94627        1.53011
C          2.49623       -1.53430        1.97876
C          0.13485       -1.07018        2.29731
C          2.51235       -2.25798        3.17072
H          3.41289       -1.42233        1.40750
C          0.15209       -1.79836        3.48444
H         -0.78333       -0.59929        1.95609
C          1.34002       -2.39321        3.91790
H          3.43319       -2.70836        3.52605
H         -0.74949       -1.89233        4.08087
C          0.72195       -1.28859       -1.28594
C         -0.03610       -0.87097       -2.39164
C          1.02200       -2.64858       -1.13031
C         -0.50748       -1.80066       -3.31353
H         -0.29424        0.17912       -2.50264
C          0.54189       -3.58311       -2.04735
H          1.59292       -2.98798       -0.27141
C         -0.23561       -3.15851       -3.12645
H         -1.11178       -1.48102       -4.15585
H          0.74936       -4.63945       -1.91445
O         -5.00877        3.24101        1.08580
C         -6.20451        3.98864        1.05688
H         -6.96959        3.51414        0.41922
H         -6.58208        4.04116        2.08264
H         -6.03775        5.01436        0.68589
C         -1.63422        4.20467        0.07974
C         -0.60183        4.76651       -0.69783
C         -2.32459        5.05765        0.96564
C         -0.29477        6.12367       -0.62748
H         -0.04473        4.11250       -1.36682
C         -1.99944        6.41220        1.05480
H         -3.11574        4.64101        1.58143
C         -0.99042        6.95501        0.25607
H          0.49608        6.53264       -1.25220
H         -2.54154        7.04806        1.75112
H         -0.74228        8.01102        0.32586
C          6.82590        1.96447       -1.30370
C         -0.89976       -4.16631       -4.02509
C          1.34360       -3.23160        5.16971
F          7.73432        0.96596       -1.36454
F          7.25827        2.85943       -0.39006
F          6.83559        2.58419       -2.50509
F          1.04900       -4.52294        4.89083
F          2.55064       -3.22308        5.77586
F          0.42938       -2.80077        6.06438
F         -0.99352       -3.72248       -5.29610
F         -0.24175       -5.34415       -4.04485
F         -2.16291       -4.42090       -3.60053
