86
O1C(C(O[B]1=C([C](COC)[Cu][P](c1ccc(cc1)C(F)(F)F)(c1ccc(cc1)C(F)(F)F)c1ccc(cc1)C(F)(F)F)c1ccccc1)(C)C)(C)C
O          4.41932       -1.12172       -0.08077
O          2.15073       -0.92419       -0.32194
C          3.86060       -2.41182        0.26171
C          2.45107       -2.34762       -0.41917
C          4.78579       -3.50318       -0.26782
C          3.78027       -2.47344        1.79311
C          2.49235       -2.68997       -1.91367
C          1.36064       -3.15785        0.27344
B          3.37966       -0.24877       -0.31743
C          2.52999        3.49980       -1.17874
C          3.55707        1.26774       -0.57216
C          2.44943        2.02489       -0.84671
Cu         0.71437        1.23138       -0.66429
P         -1.24338        0.33425       -0.12518
H          4.98507       -3.37288       -1.33373
H          4.34732       -4.49507       -0.10852
H          5.74311       -3.46202        0.26099
H          3.10152       -1.70507        2.17846
H          4.77469       -2.28165        2.20626
H          3.43744       -3.45291        2.14259
H          1.53421       -2.41626       -2.36375
H          2.65863       -3.75989       -2.07641
H          3.28317       -2.13014       -2.42212
H          0.41800       -3.06397       -0.27238
H          1.19208       -2.82691        1.29983
H          1.63657       -4.21832        0.29243
H          2.50028        4.07090       -0.22872
H          1.63470        3.80827       -1.74463
C         -2.73819        1.37155       -0.36668
C         -2.58238        2.75903       -0.21994
C         -4.00330        0.84787       -0.66996
C         -3.67699        3.60913       -0.35730
H         -1.59852        3.16892       -0.00460
C         -5.09808        1.69869       -0.81424
H         -4.13628       -0.22176       -0.80007
C         -4.93408        3.07646       -0.65399
H         -3.55863        4.68067       -0.23642
H         -6.07885        1.29560       -1.04383
C         -1.27464       -0.11622        1.65775
C         -2.44504       -0.13225        2.42952
C         -0.04821       -0.46097        2.25026
C         -2.39479       -0.51063        3.77068
H         -3.39483        0.15967        1.99145
C         -0.00017       -0.84296        3.58883
H          0.86170       -0.43253        1.65755
C         -1.17394       -0.86976        4.34638
H         -3.29739       -0.51676        4.37259
H          0.94731       -1.10488        4.04836
C         -1.61051       -1.23930       -0.99815
C         -1.11433       -1.37750       -2.30351
C         -2.30930       -2.30361       -0.41060
C         -1.32409       -2.55571       -3.01660
H         -0.53748       -0.57032       -2.74784
C         -2.51490       -3.48556       -1.12051
H         -2.67189       -2.22267        0.60945
C         -2.02177       -3.60977       -2.42157
H         -0.92724       -2.66774       -4.01997
H         -3.04128       -4.31588       -0.66175
O          3.68671        3.83822       -1.92777
C          4.95524        1.79645       -0.46263
C          6.00960        1.22890       -1.19294
C          5.25849        2.83955        0.42752
C          7.31295        1.71190       -1.06941
H          5.79999        0.40289       -1.86640
C          6.55967        3.32097        0.56095
H          4.45694        3.27750        1.01715
C          7.59507        2.76208       -0.19345
H          8.11127        1.26396       -1.65672
H          6.76745        4.13167        1.25577
H          8.61091        3.13628       -0.09361
C          3.96561        5.21675       -1.92964
H          3.12795        5.81068       -2.33618
H          4.19238        5.58597       -0.91476
H          4.84551        5.36884       -2.56117
C         -2.28307       -4.87074       -3.20422
C         -1.13041       -1.34085        5.77681
C         -6.10658        3.99830       -0.86924
F         -7.27452        3.40500       -0.53800
F         -5.99573        5.12695       -0.13627
F         -6.20405        4.37214       -2.16467
F         -2.10790       -0.77855        6.52029
F          0.05102       -1.05375        6.36310
F         -1.29613       -2.68199        5.85233
F         -3.44179       -4.78449       -3.89602
F         -1.30217       -5.11500       -4.09916
F         -2.38194       -5.94860       -2.39619
