95
O1C(C(O[B]1)(C)C)(C)C.[Cu]/C(=[C]/COC)/c1ccccc1.P(c1ccc(cc1)C(=O)OC)(c1ccc(cc1)C(=O)OC)c1ccc(cc1)C(=O)OC
O          3.07901        1.61301        1.08129
O          3.10716        1.28356       -1.17688
C          4.43517        1.19140        0.76023
C          4.50028        1.43783       -0.78670
C          5.41156        2.01795        1.59121
C          4.53317       -0.29232        1.13976
C          4.90771        2.86885       -1.15970
C          5.33469        0.42776       -1.57016
B          2.29758        1.50952       -0.06871
Cu         0.29221        1.58217       -0.14707
P         -0.50387       -0.53990       -0.07767
C         -2.74882        2.68411       -0.45299
C         -0.23460        3.48112       -0.16208
C         -1.29093        2.80075       -0.29431
H          5.24771        3.08872        1.45030
H          6.44819        1.78280        1.32251
H          5.27424        1.79260        2.65381
H          3.82556       -0.89147        0.55786
H          4.27744       -0.40718        2.19776
H          5.54238       -0.68735        0.98199
H          4.74155        3.01427       -2.23150
H          5.96416        3.05967       -0.94150
H          4.29679        3.60329       -0.62647
H          5.30420        0.67392       -2.63656
H          4.95139       -0.58813       -1.44856
H          6.38145        0.44907       -1.24482
H         -3.17203        2.06487        0.35494
H         -2.98087        2.15810       -1.39457
C          0.02705       -1.43605        1.44433
C         -0.49098       -2.69973        1.77574
C          0.99749       -0.85074        2.27102
C         -0.04589       -3.36973        2.91034
H         -1.24897       -3.15985        1.14924
C          1.44422       -1.52393        3.40729
H          1.41876        0.11691        2.01890
C          0.92862       -2.78296        3.73239
H         -0.44600       -4.34496        3.16369
H          2.19693       -1.08319        4.05264
C         -2.33478       -0.71436       -0.08010
C         -3.04056       -0.67989       -1.29645
C         -3.05778       -0.65991        1.12379
C         -4.42741       -0.58474       -1.30676
H         -2.50063       -0.71700       -2.23823
C         -4.44701       -0.56117        1.11427
H         -2.53277       -0.68358        2.07389
C         -5.14129       -0.51441       -0.10240
H         -4.97832       -0.55286       -2.24111
H         -4.99637       -0.51315        2.04777
C          0.06448       -1.63825       -1.44311
C          1.23340       -1.28374       -2.13512
C         -0.59874       -2.83225       -1.77457
C          1.73318       -2.11937       -3.13231
H          1.75801       -0.36479       -1.89455
C         -0.10040       -3.66225       -2.77400
H         -1.51556       -3.10935       -1.26342
C          1.07350       -3.31024       -3.45642
H          2.63701       -1.85692       -3.67236
H         -0.61485       -4.58196       -3.02875
O         -3.34098        3.97784       -0.45145
C          0.47737        4.74052       -0.09369
C          1.77549        4.84579        0.42905
C         -0.17866        5.89839       -0.55494
C          2.41099        6.08568        0.47821
H          2.26675        3.95318        0.80074
C          0.46604        7.13235       -0.50641
H         -1.19200        5.80846       -0.93586
C          1.76347        7.23044        0.00614
H          3.41554        6.15761        0.88749
H         -0.04561        8.02063       -0.86798
H          2.26416        8.19448        0.04086
C         -4.74174        3.91042       -0.62807
H         -5.11919        4.93603       -0.60344
H         -5.01217        3.45124       -1.59377
H         -5.22770        3.32969        0.17405
C         -6.62312       -0.38063       -0.17726
C          1.44995       -3.45538        4.95837
C          1.65792       -4.16261       -4.53263
O         -7.25606       -0.32887       -1.21435
O          2.29978       -2.98650        5.68971
O          2.67631       -3.89846       -5.14095
O         -7.19778       -0.31504        1.04489
O          0.87008       -4.65803        5.17330
O          0.92615       -5.27652       -4.76314
C         -8.62769       -0.17639        1.04014
H         -8.92130       -0.13766        2.08958
H         -8.92229        0.74081        0.52218
H         -9.09422       -1.02937        0.53909
C          1.33318       -5.35766        6.33940
H          0.77195       -6.29235        6.36208
H          2.40699       -5.55300        6.26813
H          1.14121       -4.76921        7.24117
C          1.43904       -6.14025       -5.78993
H          0.74038       -6.97569       -5.84571
H          1.48746       -5.61217       -6.74654
H          2.44186       -6.49143       -5.53030
