95
O1C(C(OB1/C(=C(\[Cu][P](c1ccc(cc1)C(=O)OC)(c1ccc(cc1)C(=O)OC)c1ccc(cc1)C(=O)OC)/c1ccccc1)/COC)(C)C)(C)C
O         -4.53493        0.38213       -0.66782
O         -2.50776       -0.06924        0.30250
C         -4.48088       -1.05487       -0.50130
C         -3.36002       -1.21792        0.58305
C         -5.86158       -1.55411       -0.08660
C         -4.08088       -1.64734       -1.85990
C         -3.88526       -1.03958        2.01383
C         -2.54233       -2.50040        0.47484
B         -3.30707        0.90001       -0.30717
C         -4.04923        3.31104       -0.87516
C         -1.58971        2.75266       -0.53483
C         -2.90235        2.36801       -0.57048
Cu        -0.24435        1.41426       -0.24459
P          1.17947       -0.25852        0.05575
H         -6.23300       -1.01677        0.78871
H         -5.83453       -2.62608        0.14060
H         -6.57101       -1.39553       -0.90502
H         -3.08016       -1.31290       -2.15004
H         -4.79098       -1.30265       -2.61758
H         -4.08909       -2.74230       -1.84393
H         -3.03686       -0.97249        2.70216
H         -4.50726       -1.88641        2.32137
H         -4.47086       -0.11974        2.10390
H         -1.77950       -2.52803        1.25881
H         -2.03708       -2.57882       -0.48769
H         -3.19067       -3.37476        0.60292
H         -4.82636        2.78724       -1.45452
H         -3.71677        4.18180       -1.46094
C          2.93481        0.05722       -0.36769
C          3.41078        1.36397       -0.17908
C          3.80689       -0.93246       -0.84702
C          4.73677        1.67831       -0.46821
H          2.73635        2.13534        0.18574
C          5.13618       -0.61992       -1.11938
H          3.44855       -1.94501       -1.00740
C          5.60549        0.68941       -0.94837
H          5.09687        2.68856       -0.30378
H          5.82688       -1.38372       -1.46196
C          1.20432       -0.85714        1.79056
C          2.32009       -1.45750        2.39271
C          0.01548       -0.70692        2.52343
C          2.24029       -1.91816        3.70486
H          3.24875       -1.56699        1.84025
C         -0.05350       -1.15307        3.84119
H         -0.84949       -0.24599        2.05397
C          1.06007       -1.75480        4.44243
H          3.08657       -2.41193        4.17161
H         -0.98204       -1.04790        4.39327
C          0.68724       -1.72654       -0.93131
C          0.00033       -1.49061       -2.13305
C          0.90939       -3.04624       -0.51063
C         -0.45579       -2.55531       -2.90607
H         -0.20479       -0.46880       -2.44292
C          0.45068       -4.11140       -1.28109
H          1.41470       -3.24286        0.43016
C         -0.23684       -3.87193       -2.47815
H         -0.99802       -2.37148       -3.82639
H          0.60417       -5.13795       -0.96517
O         -4.61892        3.75632        0.36412
C         -5.72893        4.60370        0.16576
H         -6.53812        4.09719       -0.38721
H         -6.10187        4.89089        1.15368
H         -5.45383        5.51639       -0.39004
C         -1.15690        4.15728       -0.72722
C         -0.06642        4.45019       -1.57070
C         -1.75713        5.23121       -0.03755
C          0.38254        5.75662       -1.75168
H          0.42127        3.62547       -2.08794
C         -1.29016        6.53680       -0.19878
H         -2.59164        5.02444        0.62547
C         -0.22510        6.80946       -1.06018
H          1.21523        5.95475       -2.42300
H         -1.76542        7.34692        0.34980
H          0.13324        7.82797       -1.18624
C          7.06575        0.94667       -1.19069
C          1.01127       -2.33716        5.82623
C         -0.73045       -5.05439       -3.24535
O         -1.40222       -4.69821       -4.36069
O          7.44625        2.12091       -1.75468
O          0.34665       -1.66769        6.80184
O          1.51813       -3.40561        6.07986
O          7.91017        0.14641       -0.86044
O         -0.55516       -6.20864       -2.90838
C          0.16353       -0.24420        6.76853
H         -0.85162        0.00533        6.44437
H          0.30843        0.10300        7.79409
H          0.88518        0.24859        6.11096
C         -1.90927       -5.79133       -5.14509
H         -2.41721       -5.33117       -5.99293
H         -1.08959       -6.43069       -5.48463
H         -2.60656       -6.39331       -4.55570
C          6.58123        2.87653       -2.61532
H          6.15204        3.72759       -2.07727
H          7.21095        3.24648       -3.42770
H          5.77448        2.26468       -3.02880
