56
O1C(C(O[B]1=C([C](COC)[Cu][P](C)(C)C)c1ccccc1)(C)C)(C)C
O         -1.06966        2.33074       -0.10383
O          0.87548        1.13674        0.06442
C         -0.02041        3.30034        0.11719
C          1.26366        2.48901       -0.28119
C         -0.30007        4.53095       -0.74091
C         -0.05787        3.66691        1.60676
C          1.53718        2.50413       -1.79068
C          2.52500        2.85963        0.49294
B         -0.52147        1.06747       -0.01184
C         -1.26671       -2.78515       -0.15901
C         -1.32380       -0.25359       -0.01349
C         -0.61390       -1.42323       -0.08803
Cu         1.31169       -1.36545       -0.03295
P          3.52255       -1.42436        0.14493
H         -0.43910        4.26274       -1.79054
H          0.52192        5.25245       -0.66606
H         -1.21661        5.01859       -0.39444
H          0.15359        2.79071        2.22783
H         -1.06228        4.02187        1.85517
H          0.66242        4.45545        1.85016
H          2.29424        1.74813       -2.02270
H          1.90237        3.47966       -2.12843
H          0.63190        2.25322       -2.35143
H          3.37226        2.26405        0.13590
H          2.40430        2.67356        1.56269
H          2.77357        3.91677        0.34629
H         -1.37757       -3.16574        0.87740
H         -0.59305       -3.49563       -0.66795
O         -2.52074       -2.78655       -0.82529
C         -2.81169       -0.13525        0.11071
C         -3.55076        0.70668       -0.73399
C         -3.50331       -0.81427        1.12783
C         -4.93321        0.83753       -0.59191
H         -3.03210        1.26143       -1.51017
C         -4.88188       -0.68125        1.27975
H         -2.94455       -1.45849        1.80201
C         -5.60707        0.14361        0.41476
H         -5.48478        1.48676       -1.26830
H         -5.39256       -1.22063        2.07455
H         -6.68328        0.24825        0.52899
C         -3.24649       -3.97503       -0.63667
H         -2.69241       -4.86260       -0.99129
H         -3.50308       -4.13273        0.42559
H         -4.17358       -3.88512       -1.21024
C          4.31985       -3.08869        0.21644
H          3.90405       -3.65297        1.05683
H          4.09801       -3.63766       -0.70395
H          5.40639       -3.00924        0.33680
C          4.16671       -0.60686        1.67089
H          3.77131       -1.12487        2.55012
H          5.26213       -0.62029        1.70494
H          3.81210        0.42717        1.69925
C          4.48339       -0.58771       -1.19372
H          4.26254       -1.06554       -2.15319
H          4.17773        0.46043       -1.25859
H          5.56185       -0.63788       -1.00470
