56
O1C(C(OB1[Cu]C(=C=C1C=C[CH]C=C1)COC)(C)C)(C)C.P(C)(C)C
O          2.50866       -1.28635        0.37934
O          2.66321        0.83116       -0.46045
C          3.91146       -1.09444        0.05132
C          4.01178        0.46505       -0.06412
C          4.76464       -1.72134        1.15093
C          4.15437       -1.81543       -1.28198
C          4.27592        1.15495        1.28173
C          4.99113        0.97671       -1.11752
B          1.78502       -0.17445       -0.06219
Cu        -0.23166       -0.09661       -0.09303
P         -1.12678       -2.18040       -0.04544
C          0.20217        2.93065        0.07345
C         -1.85564        1.22661        0.01249
C         -0.74381        1.80100        0.01942
H          4.49535       -1.33396        2.13604
H          5.82996       -1.52825        0.97642
H          4.61280       -2.80590        1.16272
H          3.54282       -1.37618       -2.07603
H          3.86558       -2.86591       -1.17382
H          5.20690       -1.77456       -1.58336
H          4.12108        2.23188        1.16137
H          5.29999        0.98791        1.63367
H          3.57779        0.79617        2.04428
H          4.97751        2.07157       -1.13210
H          4.72395        0.62499       -2.11647
H          6.01363        0.65104       -0.89132
H          0.90513        2.85185       -0.77024
H          0.81424        2.83726        0.98675
O         -0.50592        4.16032        0.05303
C         -3.23083        0.82620        0.01506
C         -3.97950        0.81161       -1.17935
C         -3.84348        0.37369        1.20314
C         -5.29143        0.34312       -1.18387
H         -3.51380        1.15911       -2.09656
C         -5.15593       -0.09217        1.18841
H         -3.27226        0.38694        2.12695
C         -5.88585       -0.11692       -0.00479
H         -5.85296        0.33441       -2.11449
H         -5.61188       -0.43879        2.11229
H         -6.90775       -0.48529       -0.01395
C          0.36759        5.26901        0.08112
H         -0.25349        6.16860        0.05938
H          0.98435        5.28293        0.99597
H          1.04510        5.28048       -0.78933
C          0.05993       -3.46565       -0.62718
H          0.18990       -3.36677       -1.71017
H          1.02657       -3.26541       -0.15571
H         -0.28219       -4.48105       -0.39576
C         -2.70658       -2.63950       -0.88887
H         -2.61628       -2.45120       -1.96333
H         -2.95171       -3.69628       -0.73011
H         -3.51707       -2.01506       -0.50257
C         -1.46239       -2.68628        1.69918
H         -0.56116       -2.52623        2.29876
H         -2.26449       -2.05777        2.09890
H         -1.76151       -3.73877        1.76538
