13
P(C)(C)C
P          0.00005        0.00004       -0.61406
C          1.58110        0.42367        0.28380
H          2.36886       -0.28153       -0.00314
H          1.91102        1.42812       -0.00332
H          1.46035        0.39144        1.37427
C         -1.15749        1.15739        0.28377
H         -0.94233        2.19216       -0.00457
H         -2.19235        0.93920       -0.00201
H         -1.06798        1.07032        1.37427
C         -0.42363       -1.58107        0.28375
H         -1.42821       -1.91069       -0.00330
H          0.28130       -2.36902       -0.00333
H         -0.39131       -1.46055        1.37424
