47
O1C(C(OB1/C(=C(/COC)\[Cu][PH3])/c1ccccc1)(C)C)(C)C
O          0.43224        2.16124       -0.21812
O          1.62750        0.26856        0.24687
C          1.78995        2.59414        0.04181
C          2.60411        1.26428       -0.15145
C          2.14107        3.71243       -0.93512
C          1.82288        3.11227        1.48504
C          2.95736        0.98073       -1.61672
C          3.83815        1.12227        0.73345
B          0.35244        0.80720        0.01812
C         -1.85617       -2.43137       -0.09615
C         -0.93163       -0.05400        0.01190
C         -0.74927       -1.41135       -0.01776
Cu         1.06670       -2.06263        0.08093
P          3.06413       -3.00048        0.21242
H          1.96533        3.40928       -1.96965
H          3.19115        4.00755       -0.82637
H          1.51633        4.58730       -0.73017
H          1.57994        2.31236        2.19147
H          1.06940        3.89786        1.59271
H          2.80223        3.52822        1.74473
H          3.32172       -0.04869       -1.70108
H          3.73636        1.65609       -1.98506
H          2.07484        1.07809       -2.25599
H          4.33470        0.16684        0.52865
H          3.57460        1.14684        1.79286
H          4.55623        1.92440        0.52940
H         -2.03754       -2.81212        0.93082
H         -1.50507       -3.30206       -0.67718
O         -3.06215       -1.95225       -0.66783
C         -2.23832        0.67176        0.08042
C         -2.52441        1.73827       -0.78578
C         -3.18503        0.35589        1.06932
C         -3.72620        2.44203       -0.68927
H         -1.79536        2.01528       -1.54118
C         -4.38113        1.06178        1.17636
H         -2.97332       -0.45943        1.75592
C         -4.66098        2.10795        0.29208
H         -3.93003        3.25634       -1.38092
H         -5.09760        0.79621        1.95052
H         -5.59482        2.65908        0.37184
C         -4.11695       -2.87787       -0.58367
H         -3.88180       -3.82398       -1.10311
H         -4.36999       -3.11876        0.46394
H         -4.98932       -2.42055       -1.05916
H          4.03471       -2.68868       -0.76885
H          3.85611       -2.73108        1.35297
H          3.22170       -4.40464        0.19494
