47
O1C(C(O[B]1=C(COC)[C]([Cu][PH3])c1ccccc1)(C)C)(C)C
O         -1.98070       -1.83060        0.35150
O         -1.71325        0.42112        0.03127
C         -3.30505       -1.25054        0.44060
C         -3.10640        0.14332       -0.25964
C         -4.29593       -2.18256       -0.25088
C         -3.63722       -1.12780        1.93341
C         -3.23687        0.07478       -1.78624
C         -3.95886        1.27869        0.29868
B         -1.06856       -0.80515        0.22703
C          0.99322       -2.36170        0.51771
C          1.24649        0.15343        0.16127
C          0.46120       -0.96042        0.30172
Cu         0.32873        1.83784       -0.08215
P         -0.64827        3.79578       -0.39615
H         -3.98147       -2.41299       -1.27099
H         -5.29539       -1.73328       -0.28100
H         -4.36078       -3.12489        0.30210
H         -2.93426       -0.45495        2.43484
H         -3.54832       -2.11540        2.39567
H         -4.65549       -0.75792        2.09409
H         -2.87796        1.01605       -2.21549
H         -4.27549       -0.07609       -2.09849
H         -2.62484       -0.73589       -2.19265
H         -3.74809        2.20392       -0.24984
H         -3.74782        1.45437        1.35583
H         -5.02579        1.05645        0.18462
H          0.29968       -2.93773        1.15197
H          1.97618       -2.34825        1.01450
O          1.10701       -3.01933       -0.75147
C          1.56066       -4.34848       -0.62351
H          0.87391       -4.95944       -0.01330
H          1.61241       -4.77428       -1.63021
H          2.56275       -4.39757       -0.16392
C          2.72650        0.10506        0.16208
C          3.45641        1.06194        0.89501
C          3.45569       -0.83710       -0.59299
C          4.84923        1.05512        0.91417
H          2.90319        1.81306        1.45565
C          4.85155       -0.82556       -0.59646
H          2.91186       -1.57069       -1.17963
C          5.55627        0.11147        0.16220
H          5.38583        1.79572        1.50278
H          5.39131       -1.55694       -1.19389
H          6.64336        0.11480        0.16024
H         -1.49442        3.94177       -1.51991
H         -1.55475        4.25528        0.58705
H          0.09233        4.98894       -0.55393
