59
O1C(C(O[B]1=C(COC)[C]([Cu][P](OC)(OC)OC)c1ccccc1)(C)C)(C)C
O          1.18880        3.10004       -0.22949
O         -0.42423        1.47581       -0.24640
C         -0.07931        3.78756       -0.36888
C         -1.10661        2.70158        0.11831
C         -0.04085        5.05868        0.47436
C         -0.23649        4.13373       -1.85510
C         -1.28747        2.67155        1.64135
C         -2.46573        2.72950       -0.57492
B          0.94809        1.74327       -0.26229
C          3.46186        1.08289       -0.42834
C          1.61073       -0.66648       -0.21966
C          2.01943        0.63915       -0.30830
Cu        -0.30051       -0.95954       -0.08315
P         -2.44165       -1.38064        0.09810
H          0.23087        4.84103        1.50949
H         -1.01480        5.56184        0.46222
H          0.70602        5.74787        0.06759
H         -0.27214        3.22462       -2.46367
H          0.62969        4.72153       -2.17362
H         -1.14333        4.71891       -2.04200
H         -1.83571        1.76236        1.90606
H         -1.84921        3.54131        1.99896
H         -0.31757        2.64703        2.14758
H         -3.09565        1.93657       -0.16023
H         -2.36840        2.56452       -1.65040
H         -2.96583        3.69058       -0.40828
H          3.52820        2.00602       -1.02752
H          4.08012        0.31464       -0.91962
O          3.98377        1.35036        0.88076
C          5.31746        1.80494        0.83903
H          5.41425        2.74200        0.26440
H          5.63243        1.98964        1.87072
H          5.99266        1.05668        0.38912
C          2.55253       -1.80849       -0.19594
C          2.27142       -2.95548       -0.96513
C          3.70879       -1.82979        0.61165
C          3.12595       -4.05541       -0.96939
H          1.36254       -2.96289       -1.56364
C          4.54938       -2.94422        0.62971
H          3.93167       -0.96505        1.22852
C          4.27073       -4.05757       -0.16589
H          2.89155       -4.92012       -1.58620
H          5.43039       -2.93979        1.26787
H          4.93006       -4.92194       -0.15249
C         -3.97950       -3.62715        0.19825
H         -4.05550       -3.60981       -0.89301
H         -3.81921       -4.65179        0.53817
H         -4.90708       -3.24155        0.63867
C         -4.59108       -0.70050       -1.43385
H         -4.75047       -0.51109       -2.49682
H         -5.33706       -1.42245       -1.08009
H         -4.69255        0.23516       -0.87637
C         -4.31757       -0.73681        1.97250
H         -4.10254       -1.67551        2.49126
H         -4.43162        0.06733        2.70184
H         -5.24636       -0.83772        1.39792
O         -2.84385       -2.86983        0.64129
O         -3.26219       -1.22649       -1.31008
O         -3.22459       -0.36190        1.12220
