59
O1C(C(OB1/C(=C(/COC)\[Cu][P](OC)(OC)OC)/c1ccccc1)(C)C)(C)C
O         -1.84017        2.31639       -0.24254
O          0.13928        1.33855        0.34859
C         -0.91327        3.39985        0.02687
C          0.48126        2.68422       -0.08070
C         -1.14875        4.50550       -0.99771
C         -1.21977        3.90435        1.44205
C          0.99788        2.57299       -1.52045
C          1.57306        3.22461        0.83632
B         -1.21583        1.12723        0.05542
C         -1.28588       -2.78137       -0.01743
C         -1.83717       -0.28876        0.04952
C         -0.93321       -1.31890        0.05132
Cu         0.93804       -0.82041        0.17326
P          3.11947       -0.74103        0.11994
H         -1.09392        4.12138       -2.01875
H         -0.40866        5.30562       -0.88082
H         -2.14470        4.93540       -0.85195
H         -1.04420        3.11714        2.18178
H         -2.27496        4.18841        1.49358
H         -0.60863        4.77522        1.70196
H          1.85135        1.88878       -1.53169
H          1.32274        3.54462       -1.90741
H          0.22415        2.17200       -2.18265
H          2.48719        2.63933        0.69610
H          1.28060        3.15732        1.88648
H          1.79180        4.27207        0.59812
H         -1.24405       -3.18709        1.01509
H         -0.49854       -3.31799       -0.57726
O         -2.54277       -3.06531       -0.61106
C         -3.32811       -0.39272        0.08220
C         -4.12738        0.36080       -0.79199
C         -3.97550       -1.18667        1.04415
C         -5.52067        0.29746       -0.73005
H         -3.64779        1.00188       -1.52538
C         -5.36532       -1.24500        1.11672
H         -3.37184       -1.76504        1.73823
C         -6.14745       -0.50567        0.22418
H         -6.11738        0.88147       -1.42720
H         -5.84098       -1.86797        1.87102
H         -7.23252       -0.55121        0.27730
C         -2.90657       -4.41889       -0.50990
H         -2.17452       -5.08410       -1.00253
H         -3.00413       -4.74140        0.54185
H         -3.87595       -4.53355       -1.00341
O          3.82527       -1.09807        1.54607
O          3.80796        0.65451       -0.36990
O          3.84699       -1.75904       -0.94815
C          4.97461        0.77481       -1.20436
H          4.85153        0.20129       -2.12603
H          5.06950        1.83792       -1.43315
H          5.87215        0.43086       -0.68053
C          5.25306       -1.08733        1.71720
H          5.62380       -0.05674        1.72305
H          5.45654       -1.55239        2.68337
H          5.74698       -1.65737        0.92277
C          3.34699       -3.10623       -1.04318
H          2.25101       -3.11367       -1.07962
H          3.75103       -3.52369       -1.96731
H          3.68706       -3.70163       -0.18847
