32
O1C(C(OB1[Cu][PH](C)C)(C)C)(C)C
O         -1.31069        0.79788        0.76058
O         -1.48536       -0.83900       -0.82326
C         -2.71770        0.74176        0.40571
C         -2.82667       -0.65422       -0.29858
C         -3.55115        0.89601        1.67578
C         -2.98176        1.91917       -0.54365
C         -3.08036       -1.80749        0.68271
C         -3.82065       -0.72284       -1.45563
B         -0.60616       -0.05799       -0.08046
Cu         1.38144       -0.14820       -0.19906
P          3.66259       -0.18789       -0.24977
H         -3.26597        0.16213        2.43278
H         -4.61966        0.77955        1.45775
H         -3.39584        1.89379        2.09941
H         -2.38855        1.81946       -1.45776
H         -2.68326        2.84719       -0.04599
H         -4.04046        1.99412       -0.81612
H         -2.93248       -2.75623        0.15744
H         -4.10002       -1.78556        1.08342
H         -2.37277       -1.76852        1.51655
H         -3.81262       -1.72843       -1.88898
H         -3.56320       -0.01490       -2.24651
H         -4.83860       -0.50799       -1.10855
H          4.27864       -0.94158       -1.27912
C          4.50207       -0.89779        1.23996
H          5.59261       -0.86089        1.15416
H          4.19034       -0.32923        2.12173
H          4.18205       -1.93519        1.37556
C          4.50708        1.44467       -0.47149
H          5.59734        1.34850       -0.46151
H          4.18927        1.89088       -1.41855
H          4.19645        2.11229        0.33829
