102
O1C(C(OB1[Cu](C(=C=C1C=CC=C[CH]1)COC)[C]1N(c2c(cccc2C(C)C)C(C)C)C(CC21CCCCC2)(C)C)(C)C)(C)C
O         -3.32961        1.10539       -0.78619
O         -2.74541       -0.23377        0.96248
C         -4.58637        0.61894       -0.24081
C         -4.15286        0.06751        1.16540
C         -5.57450        1.78336       -0.20303
C         -5.10106       -0.46726       -1.19412
C         -4.22456        1.11944        2.27931
C         -4.85715       -1.21218        1.60971
B         -2.26888        0.50161       -0.12342
Cu        -0.30969        0.64249       -0.64434
C         -1.35040        3.56842       -0.77399
C          0.93329        2.23735       -1.03251
C         -0.27641        2.56145       -0.88336
H         -5.16471        2.63895        0.33819
H         -6.51595        1.48406        0.27263
H         -5.79653        2.10786       -1.22480
H         -4.40475       -1.30753       -1.24995
H         -5.19294       -0.04023       -2.19760
H         -6.08205       -0.84475       -0.88527
H         -3.72884        0.72418        3.17172
H         -5.25888        1.37018        2.53831
H         -3.70441        2.03524        1.98323
H         -4.45957       -1.53064        2.57919
H         -4.69733       -2.02524        0.89780
H         -5.93575       -1.04966        1.71914
H         -1.80582        3.49140        0.22970
H         -2.15151        3.33278       -1.49182
C          0.21638       -1.17552       -0.41309
N          0.80656       -1.64727        0.67944
C          2.35214        2.41064       -1.17581
C          3.17001        2.43852       -0.02935
C          2.95452        2.53379       -2.44265
C          4.54685        2.60471       -0.14992
H          2.71563        2.30826        0.94730
C          4.33426        2.69182       -2.55428
H          2.32904        2.50446       -3.33006
C          5.13833        2.73102       -1.41067
H          5.16129        2.62124        0.74656
H          4.78474        2.78710       -3.53909
H          6.21405        2.85521       -1.50223
O         -0.82500        4.86797       -0.99217
C         -1.82514        5.85972       -0.91982
H         -1.33936        6.82246       -1.10072
H         -2.61126        5.70751       -1.67911
H         -2.30815        5.88535        0.07244
C          1.76500       -0.88807        1.45673
C          3.12231       -1.00101        1.06813
C          1.37134       -0.08326        2.54262
C          4.08279       -0.33268        1.83275
C          2.37861        0.55707        3.28078
C          3.72033        0.42564        2.94332
H          5.12773       -0.39247        1.54743
H          2.09779        1.17737        4.12690
H          4.48276        0.93216        3.52952
C          0.12764       -3.61447       -0.39862
H          1.01805       -4.08089       -0.83652
H         -0.64924       -4.38248       -0.35856
C          0.45772       -3.08714        1.00991
C          1.59019       -3.84606        1.70398
H          1.86632       -3.36705        2.64856
H          1.24723       -4.86206        1.92796
H          2.48471       -3.92374        1.08273
C         -0.78555       -3.08962        1.91945
H         -1.15936       -4.11468        2.02534
H         -0.53782       -2.71938        2.91716
H         -1.58167       -2.45916        1.51530
C         -0.29683       -2.36677       -1.22833
C         -1.81943       -2.31751       -1.50172
C          0.43884       -2.30213       -2.59720
C         -2.29330       -3.40984       -2.47109
H         -2.04941       -1.33537       -1.93073
H         -2.36707       -2.37458       -0.55672
C         -0.01545       -3.40874       -3.55967
H          0.23667       -1.31912       -3.04373
H          1.52180       -2.35426       -2.43863
C         -1.52971       -3.34702       -3.80078
H         -3.37152       -3.29618       -2.64326
H         -2.15584       -4.40317       -2.02007
H          0.52944       -3.31566       -4.50753
H          0.24786       -4.39263       -3.14399
H         -1.84763       -4.15904       -4.46683
H         -1.77326       -2.40288       -4.31007
C         -0.08285        0.17518        2.90820
C         -0.41632        1.67441        2.77176
C         -0.42099       -0.31259        4.32906
H         -0.72227       -0.35270        2.20064
H         -0.17797        2.03890        1.76888
H         -1.48436        1.83550        2.94796
H          0.14168        2.27849        3.49740
H         -0.15618       -1.36500        4.47723
H          0.11400        0.26985        5.08891
H         -1.49532       -0.20154        4.51907
C          3.54896       -1.75899       -0.18665
C          4.84866       -2.55987       -0.00227
C          3.65726       -0.79726       -1.38437
H          2.76396       -2.47677       -0.43273
H          4.80461       -3.20913        0.87980
H          5.02625       -3.18748       -0.88318
H          5.71997       -1.90441        0.10632
H          2.70699       -0.28542       -1.55370
H          4.42117       -0.03335       -1.21105
H          3.92318       -1.35202       -2.29323
