102
O1C(C(O[B]1)(C)C)(C)C.[Cu](/C(=[C]/c1ccccc1)/COC)[C]1N(c2c(cccc2C(C)C)C(C)C)C(CC21CCCCC2)(C)C
O         -3.14956        0.59657       -0.86955
O         -2.66595        0.95471        1.33716
C         -4.44323        0.69256       -0.20787
C         -4.06276        0.56216        1.31881
C         -5.04069        2.05432       -0.57967
C         -5.33510       -0.42504       -0.74725
C         -4.83282        1.48809        2.25823
C         -4.11759       -0.87743        1.84759
B         -2.14543        0.79371        0.06445
Cu        -0.22512        0.34492       -0.38185
C         -1.51555        3.43213       -0.02728
C          0.60128        2.10046       -0.69195
C         -0.64957        2.24897       -0.35296
H         -4.42293        2.87503       -0.20799
H         -6.05333        2.17123       -0.17855
H         -5.08645        2.13403       -1.67010
H         -4.87002       -1.40596       -0.62761
H         -5.51303       -0.26594       -1.81561
H         -6.30458       -0.43181       -0.23588
H         -4.47392        1.34799        3.28289
H         -5.90530        1.26267        2.23701
H         -4.69010        2.53800        1.99417
H         -3.67679       -0.89989        2.84925
H         -3.53656       -1.54915        1.21145
H         -5.14556       -1.24988        1.91040
H         -1.90045        3.35261        1.00305
H         -2.39179        3.45469       -0.69956
C          0.19045       -1.46794       -0.38023
N          1.10364       -2.03425        0.39824
C          1.78255        2.88809       -0.96186
C          2.91852        2.73579       -0.14213
C          1.85955        3.77321       -2.05437
C          4.08302        3.45589       -0.39709
H          2.87442        2.03620        0.68653
C          3.03611        4.47180       -2.31953
H          0.98427        3.90909       -2.68248
C          4.15439        4.32129       -1.49348
H          4.94464        3.32829        0.25483
H          3.07771        5.14744       -3.17102
H          5.06862        4.87108       -1.70190
O         -0.75109        4.61124       -0.18807
C         -1.49817        5.77489        0.08138
H         -0.82916        6.62704       -0.06568
H         -2.36186        5.87724       -0.59876
H         -1.87564        5.79174        1.11834
C          2.10274       -1.26720        1.11131
C          3.32921       -1.03120        0.44579
C          1.84034       -0.75052        2.39446
C          4.32531       -0.33835        1.14076
C          2.87893       -0.07202        3.04836
C          4.11446        0.11805        2.43990
H          5.27050       -0.13068        0.64952
H          2.70322        0.33352        4.04031
H          4.90311        0.65175        2.96362
C          0.33582       -3.83700       -0.89228
H          1.07853       -4.03482       -1.67406
H         -0.29558       -4.72627       -0.81523
C          1.05746       -3.54823        0.43955
C          2.44060       -4.19758        0.53254
H          2.97989       -3.86024        1.42308
H          2.31460       -5.28336        0.60339
H          3.05525       -3.99003       -0.34417
C          0.22783       -3.98374        1.66012
H          0.09371       -5.07106        1.64638
H          0.73868       -3.71678        2.58854
H         -0.75911       -3.51485        1.66584
C         -0.46563       -2.54837       -1.23129
C         -1.97749       -2.67393       -0.91222
C         -0.31055       -2.12497       -2.71640
C         -2.71645       -3.61645       -1.87384
H         -2.41540       -1.67499       -0.98361
H         -2.11348       -3.01070        0.12213
C         -1.02722       -3.08471       -3.67558
H         -0.73048       -1.11588       -2.82601
H          0.75576       -2.04754       -2.96402
C         -2.52056       -3.18661       -3.33428
H         -3.78420       -3.62654       -1.61860
H         -2.35861       -4.64851       -1.74710
H         -0.89168       -2.74051       -4.70833
H         -0.56881       -4.08312       -3.61531
H         -3.02367       -3.88840       -4.01130
H         -2.98982       -2.20343       -3.48380
C          0.46443       -0.79507        3.04770
C         -0.08613        0.63650        3.21537
C          0.47635       -1.52298        4.40416
H         -0.21804       -1.32299        2.37654
H         -0.06234        1.18166        2.26840
H         -1.12728        0.60804        3.55035
H          0.50215        1.19921        3.95025
H          0.87359       -2.54045        4.32538
H          1.09230       -0.98581        5.13482
H         -0.54027       -1.58376        4.81015
C          3.56269       -1.41341       -1.01417
C          4.92951       -2.08039       -1.24890
C          3.38778       -0.18248       -1.92531
H          2.79149       -2.12915       -1.30906
H          5.09461       -2.92746       -0.57357
H          4.99556       -2.44395       -2.28091
H          5.75329       -1.37283       -1.10338
H          2.39464        0.25575       -1.79509
H          4.12567        0.59159       -1.69060
H          3.51402       -0.47232       -2.97627
