108
O1C(C(O[B]1=C(COC)[C]([Cu][C]1N(C=CN1c1c(cccc1C(C)C)C(C)C)c1c(cccc1C(C)C)C(C)C)c1ccccc1)(C)C)(C)C
O         -4.60989       -0.14349       -1.10634
O         -2.75439       -1.11582       -0.17384
C         -4.98753       -1.50029       -0.80026
C         -3.89273       -1.91484        0.24440
C         -6.42067       -1.50847       -0.27425
C         -4.89655       -2.29595       -2.11061
C         -4.23987       -1.48002        1.67535
C         -3.52452       -3.39480        0.21253
B         -3.25791        0.00002       -0.83614
C         -3.37810        2.38190       -1.80620
C         -1.14657        1.41584       -1.12263
C         -2.49743        1.27466       -1.25769
Cu         0.12100        0.21566       -0.32111
H         -6.54242       -0.81288        0.55892
H         -6.70832       -2.51305        0.05763
H         -7.10632       -1.20200       -1.07088
H         -3.86798       -2.30888       -2.48504
H         -5.52460       -1.80709       -2.86162
H         -5.23998       -3.32863       -1.98687
H         -3.35894       -1.60934        2.31042
H         -5.05941       -2.07575        2.09152
H         -4.52338       -0.42344        1.70067
H         -2.78257       -3.61644        0.98351
H         -3.10262       -3.67975       -0.75296
H         -4.41109       -4.01040        0.40522
H         -4.21466        1.96212       -2.38639
H         -2.81568        3.06290       -2.46329
C          1.53192       -0.70058        0.60094
C          3.33518       -1.96793        1.17217
C          2.89139       -1.36441        2.30470
H          4.15584       -2.64464        0.99433
H          3.25652       -1.39149        3.31860
N          1.79252       -0.59967        1.93724
N          2.49925       -1.54149        0.14255
C          2.67778       -1.89129       -1.24565
C          2.19122       -3.13464       -1.68379
C          3.32471       -0.97054       -2.09733
C          2.41137       -3.47823       -3.02345
C          3.52283       -1.36887       -3.42435
C          3.08097       -2.61015       -3.88016
H          2.04685       -4.42775       -3.40144
H          4.01865       -0.69857       -4.11727
C          1.09719        0.34331        2.77688
C         -0.02088       -0.07204        3.52249
C          1.54770        1.67750        2.74699
C         -0.70581        0.91744        4.24002
C          0.82365        2.62274        3.48255
C         -0.29822        2.24933        4.21607
H         -1.58041        0.63377        4.81989
H          1.13672        3.66242        3.46670
C         -0.50137       -1.51537        3.66641
H         -1.52499       -1.43562        4.05593
C          2.77750        2.10912        1.95493
H          3.20696        1.22696        1.47249
C          3.76546        0.40722       -1.60402
H          2.96319        0.78764       -0.96148
C          1.36577       -4.02797       -0.76714
H          1.63586       -3.79892        0.26905
H         -0.85911        2.99714        4.76997
H          3.24677       -2.89348       -4.91620
C          0.32399       -2.25752        4.73799
H          1.35614       -2.40678        4.40165
H          0.34970       -1.70012        5.68070
H         -0.10671       -3.24691        4.93361
C         -0.59481       -2.35030        2.37739
H         -1.20953       -3.23624        2.57613
H         -1.05086       -1.79021        1.55667
H          0.38309       -2.70894        2.04617
C          2.41386        3.10228        0.83860
H          2.00268        4.03327        1.24335
H          3.30502        3.35730        0.25260
H          1.66789        2.68264        0.15957
C          3.86241        2.68131        2.88667
H          3.52141        3.59610        3.38499
H          4.14255        1.96066        3.66390
H          4.76134        2.93127        2.31081
C          1.62481       -5.52857       -0.97683
H          2.69250       -5.76675       -0.91003
H          1.09536       -6.10716       -0.21153
H          1.26147       -5.87446       -1.95122
C         -0.13066       -3.69557       -0.93449
H         -0.73255       -4.30056       -0.24807
H         -0.34215       -2.64077       -0.73074
H         -0.45808       -3.91192       -1.95893
C          5.05769        0.33447       -0.76452
H          5.32871        1.33448       -0.40536
H          4.94970       -0.31420        0.10833
H          5.88873       -0.04502       -1.37157
C          3.94815        1.43217       -2.73348
H          4.06133        2.43182       -2.30231
H          4.84367        1.22327       -3.33160
H          3.08450        1.45629       -3.40356
O         -3.91440        3.12636       -0.70094
C         -4.77680        4.15655       -1.12304
H         -5.14371        4.66624       -0.22625
H         -4.25730        4.89216       -1.76168
H         -5.64101        3.76538       -1.68729
C         -0.47459        2.69285       -1.48557
C          0.59321        2.69992       -2.40411
C         -0.80526        3.91051       -0.85674
C          1.29302        3.86965       -2.69528
H          0.86950        1.75965       -2.87559
C         -0.08817        5.07632       -1.12999
H         -1.63869        3.92397       -0.16170
C          0.96371        5.06568       -2.04973
H          2.10641        3.84645       -3.41658
H         -0.35774        6.00179       -0.62533
H          1.51960        5.97555       -2.26161
