63
O1C(C(O[B]1=C([C](COC)[Cu][P](c1ccccc1)(C)C)c1ccccc1)(C)C)(C)C
O         -1.66127        2.32011        0.26196
O          0.25067        1.06412        0.17694
C         -0.58447        3.20376        0.65094
C          0.67572        2.44999        0.09542
C         -0.83804        4.58088        0.04421
C         -0.60658        3.28393        2.18335
C          0.94482        2.75358       -1.38405
C          1.95429        2.62272        0.90949
B         -1.14669        1.04607        0.13276
C         -2.06295       -2.76940       -0.15319
C         -1.99951       -0.23509       -0.03241
C         -1.35603       -1.44346        0.01743
Cu         0.52826       -1.49578        0.40263
P          2.69545       -1.58095        0.89228
H         -0.99071        4.51891       -1.03545
H          0.00241        5.25560        0.24469
H         -1.74005        5.01530        0.48650
H         -0.41510        2.30134        2.62677
H         -1.60020        3.61056        2.50374
H          0.13563        3.99410        2.56371
H          1.70942        2.06697       -1.75569
H          1.30388        3.77841       -1.52510
H          0.03699        2.61457       -1.97906
H          2.75798        2.02755        0.46375
H          1.81537        2.29587        1.94279
H          2.26918        3.67245        0.91760
H         -2.37527       -3.12693        0.84967
H         -1.35216       -3.52418       -0.53123
C          3.75497       -0.71519       -0.33204
C          3.16698       -0.26818       -1.52509
C          5.12512       -0.49409       -0.12098
C          3.93582        0.38700       -2.48989
H          2.10269       -0.42062       -1.68516
C          5.89057        0.16556       -1.08230
H          5.60205       -0.83488        0.79479
C          5.29631        0.60669       -2.26845
H          3.46845        0.72969       -3.40885
H          6.94966        0.33481       -0.90763
H          5.89397        1.12027       -3.01659
O         -3.17866       -2.71312       -1.03005
C         -3.47777       -0.02880       -0.15604
C         -4.00546        0.87806       -1.08746
C         -4.37732       -0.68029        0.70419
C         -5.38031        1.09825       -1.18400
H         -3.32585        1.41434       -1.74421
C         -5.75007       -0.45800        0.61982
H         -3.98709       -1.37243        1.44574
C         -6.26094        0.43017       -0.33142
H         -5.76363        1.79714       -1.92411
H         -6.42403       -0.97732        1.29768
H         -7.33198        0.60380       -0.40145
C         -3.98835       -3.86018       -0.96910
H         -3.42808       -4.77935       -1.21744
H         -4.43618       -3.99142        0.03157
H         -4.79368       -3.72974       -1.69781
C          3.13724       -0.79888        2.50776
H          2.60145       -1.32049        3.30716
H          4.21236       -0.84148        2.71046
H          2.81156        0.24400        2.49605
C          3.48668       -3.24577        1.04135
H          4.55352       -3.16555        1.27580
H          2.98323       -3.81101        1.83233
H          3.36600       -3.78716        0.09872
