63
O1C(C(O[B]1)(C)C)(C)C.[Cu]/C(=[C]/COC)/c1ccccc1.P(c1ccccc1)(C)C
O         -2.96725       -0.27596       -0.69855
O         -2.10394       -1.94665        0.58891
C         -3.99548       -1.29998       -0.63888
C         -3.54334       -2.14868        0.59694
C         -5.35452       -0.61927       -0.49875
C         -3.92450       -2.07417       -1.96209
C         -4.06045       -1.59393        1.93096
C         -3.82885       -3.64482        0.50077
B         -1.81815       -0.73730       -0.06566
Cu         0.04436        0.04346       -0.05134
P          1.25754       -1.85705        0.12664
C          2.79351        1.70108        0.11870
C          0.15476        2.01058       -0.00146
C          1.33172        1.54988        0.04428
H         -5.37122        0.06725        0.35063
H         -6.15168       -1.36084       -0.36805
H         -5.57076       -0.04086       -1.40285
H         -2.95205       -2.56429       -2.07275
H         -4.04197       -1.36846       -2.79000
H         -4.71212       -2.83238       -2.03432
H         -3.53854       -2.09819        2.75043
H         -5.13695       -1.75809        2.05080
H         -3.85580       -0.52184        2.00873
H         -3.45789       -4.14998        1.39898
H         -3.33613       -4.09277       -0.36545
H         -4.90642       -3.83257        0.42544
H          3.26645        1.25699       -0.77378
H          3.19111        1.13978        0.98259
C          3.08129       -1.84172       -0.08430
C          3.97578       -2.03655        0.97846
C          3.59953       -1.50732       -1.34838
C          5.35284       -1.90037        0.78216
H          3.60566       -2.29199        1.96679
C          4.97327       -1.38284       -1.54610
H          2.92166       -1.32708       -2.18010
C          5.85540       -1.57502       -0.47808
H          6.03190       -2.05220        1.61709
H          5.35592       -1.12747       -2.53068
H          6.92620       -1.46984       -0.62901
O          3.12827        3.08072        0.22501
C         -0.77328        3.12266        0.00001
C         -2.15547        2.95003       -0.16880
C         -0.25029        4.41991        0.17513
C         -3.00016        4.06003       -0.15959
H         -2.54864        1.94962       -0.31279
C         -1.10324        5.52056        0.18479
H          0.82271        4.53774        0.29942
C         -2.48107        5.34483        0.01837
H         -4.06996        3.91962       -0.29331
H         -0.69338        6.51820        0.32179
H         -3.14468        6.20587        0.02606
C          4.52424        3.28418        0.28716
H          4.68971        4.36208        0.36432
H          4.97235        2.78950        1.16554
H          5.03434        2.90719       -0.61535
C          0.94623       -2.60188        1.78148
H          1.26502       -1.91577        2.57154
H         -0.13833       -2.72639        1.84967
H          1.44880       -3.56732        1.90436
C          0.69539       -3.19964       -1.00988
H         -0.38119       -3.31180       -0.85283
H          0.87036       -2.90787       -2.04941
H          1.21035       -4.14421       -0.80637
