72
O1C(C(OB1/C(=C(/COC)\[Cu][C]1N(C=CN1c1ccccc1)c1ccccc1)/c1ccccc1)(C)C)(C)C
O          2.48121        0.05516       -2.14333
O          0.52117       -0.77455       -1.31245
C          1.70240       -0.36886       -3.28901
C          0.25110       -0.43439       -2.69257
C          1.89344        0.64672       -4.41160
C          2.23877       -1.74259       -3.70983
C         -0.46419        0.92357       -2.68392
C         -0.65697       -1.50512       -3.29034
B          1.78839       -0.28282       -0.99512
C          1.69233        0.47759        2.84113
C          2.28722       -0.09252        0.45528
C          1.32968        0.13744        1.41189
Cu        -0.55121        0.06882        1.00229
H          1.66667        1.66044       -4.07379
H          1.24947        0.40661       -5.26573
H          2.93383        0.62911       -4.75158
H          2.09459       -2.47574       -2.91006
H          3.31259       -1.65821       -3.90151
H          1.74815       -2.10956       -4.61783
H         -1.35860        0.84423       -2.05967
H         -0.76153        1.23374       -3.69143
H          0.17305        1.69951       -2.24905
H         -1.63210       -1.47962       -2.79161
H         -0.23830       -2.50532       -3.15811
H         -0.81483       -1.32822       -4.36037
H          2.71580        0.87381        2.96044
H          1.61270       -0.42482        3.46046
C         -2.41085       -0.05748        0.50409
C         -4.44119       -0.88250       -0.14086
C         -4.48674        0.46143       -0.30218
H         -5.17495       -1.64743       -0.33826
H         -5.28001        1.11146       -0.63482
N         -3.17223       -1.18352        0.34792
N         -3.24531        0.94995        0.09735
C         -2.73138       -2.51619        0.63910
C         -1.47527       -2.94717        0.20363
C         -3.57847       -3.36982        1.35026
C         -1.06760       -4.24795        0.50179
C         -3.16405       -4.67309        1.62722
C         -1.90708       -5.11353        1.20685
H         -0.08806       -4.58271        0.17276
H         -3.81916       -5.33662        2.18442
C         -2.87508        2.33080        0.04904
C         -3.20654        3.08640       -1.07878
C         -2.17805        2.90517        1.11519
C         -2.84115        4.43174       -1.13655
C         -1.80519        4.24696        1.03920
C         -2.13763        5.01375       -0.08004
H         -3.09432        5.01816       -2.01510
H         -1.25426        4.69059        1.86258
H         -1.58278       -6.12578        1.43100
H         -1.84658        6.05897       -0.13016
C          0.91705        2.70424        2.90388
H          0.21663        3.35560        3.43817
H          1.94041        3.09215        3.04675
H          0.68321        2.72916        1.82861
O          0.77412        1.40752        3.44175
C          3.75890       -0.09341        0.71534
C          4.64512        0.65246       -0.08517
C          4.31169       -0.85951        1.75768
C          6.01728        0.65035        0.16384
H          4.24618        1.23434       -0.90954
C          5.68482       -0.86568        2.00754
H          3.64979       -1.46696        2.36936
C          6.54603       -0.10700        1.21270
H          6.67816        1.24317       -0.46470
H          6.08186       -1.46816        2.82138
H          7.61617       -0.10937        1.40427
H         -1.92105        2.30216        1.97961
H         -3.72040        2.61735       -1.91256
H         -4.54000       -3.00862        1.70353
H         -0.82866       -2.27589       -0.35145
