72
O1C(C(O[B]1)(C)C)(C)C.[Cu](/C(=[C]/c1ccccc1)/COC)[C]1N(C=CN1c1ccccc1)c1ccccc1
O          1.75075        1.83694       -0.18221
O          1.16256        0.76903       -2.12177
C          2.92667        1.89615       -1.03378
C          2.32982        1.57765       -2.45356
C          3.56190        3.27565       -0.89105
C          3.88827        0.81363       -0.52385
C          1.82639        2.82095       -3.19573
C          3.23656        0.75520       -3.36527
B          0.84305        0.99036       -0.79049
Cu        -0.33653       -0.26769        0.23055
C         -1.24126        2.64581       -1.12373
C         -2.02289        0.69129        0.44646
C         -1.20022        1.39477       -0.29537
H          2.84246        4.07103       -1.09736
H          4.41318        3.38470       -1.57329
H          3.92411        3.40644        0.13363
H          3.43578       -0.17934       -0.61066
H          4.08884        0.99394        0.53593
H          4.83665        0.82057       -1.07202
H          1.23433        2.50221       -4.05932
H          2.65782        3.43844       -3.55284
H          1.18759        3.43330       -2.55456
H          2.73194        0.57329       -4.31979
H          3.47620       -0.21343       -2.92120
H          4.17159        1.28992       -3.56942
H         -1.00330        2.40552       -2.17418
H         -0.46977        3.35741       -0.77558
C          0.64266       -1.80546        0.66870
C          1.49444       -3.92512        0.63105
C          2.13220       -3.25563        1.61841
H          1.60132       -4.93667        0.27359
H          2.88032       -3.57806        2.32432
N          1.60989       -1.96162        1.63207
N          0.59501       -3.03009        0.05324
C         -0.26106       -3.34355       -1.04654
C         -0.99050       -4.53522       -1.02766
C         -0.36138       -2.45817       -2.12446
C         -1.82940       -4.84380       -2.09881
C         -1.21764       -2.77046       -3.18062
C         -1.94914       -3.96041       -3.17411
H         -2.40147       -5.76713       -2.08265
H         -1.30459       -2.07902       -4.01369
C          2.06683       -0.91739        2.49151
C          3.43496       -0.79758        2.75479
C          1.15629       -0.01132        3.04217
C          3.89186        0.23708        3.57133
C          1.62647        1.03002        3.84111
C          2.99073        1.15757        4.11094
H          4.95581        0.33089        3.77030
H          0.91721        1.73989        4.25634
H         -2.61219       -4.19736       -4.00126
H          3.35014        1.96990        4.73608
C         -2.62803        4.40347       -1.82679
H         -2.46035        4.19267       -2.89679
H         -3.64240        4.79063       -1.69698
H         -1.90653        5.17802       -1.51362
O         -2.52461        3.23878       -1.03996
C         -3.37702        0.75926        0.96870
C         -3.98222        1.97284        1.35613
C         -4.10730       -0.43197        1.14735
C         -5.26665        1.98649        1.89658
H         -3.43676        2.89756        1.20662
C         -5.40302       -0.41219        1.65977
H         -3.63068       -1.37038        0.87547
C         -5.98763        0.79761        2.04541
H         -5.71386        2.93267        2.19382
H         -5.95232       -1.34381        1.77570
H         -6.99186        0.81362        2.46178
H          0.22259       -1.54288       -2.13714
H         -0.91902       -5.19829       -0.17039
H          0.09528       -0.11793        2.83940
H          4.13804       -1.48626        2.29612
