45
O1C(C(OB1[Cu][P](N(C)C)(N(C)C)C)(C)C)(C)C
O          2.57317        0.33314       -1.15867
O          2.37709       -0.29869        1.02760
C          3.91215        0.41259       -0.60433
C          3.78328       -0.44800        0.69911
C          4.90434       -0.11701       -1.63723
C          4.18727        1.89673       -0.32288
C          4.02534       -1.94530        0.46014
C          4.61863        0.03504        1.88256
B          1.68116        0.03823       -0.13160
Cu        -0.30431        0.08663       -0.27414
H          4.63330       -1.12000       -1.97418
H          5.91972       -0.14696       -1.22363
H          4.91127        0.54106       -2.51245
H          3.48087        2.28743        0.41590
H          4.05345        2.46199       -1.25051
H          5.20739        2.06098        0.04213
H          3.71316       -2.49943        1.35099
H          5.08181       -2.16265        0.26653
H          3.43083       -2.30243       -0.38629
H          4.44877       -0.61855        2.74467
H          4.34788        1.05220        2.17427
H          5.68818        0.01127        1.64094
P         -2.58263        0.13876       -0.41798
N         -3.26670       -1.42418       -0.24439
N         -3.26072        1.29757        0.64879
C         -4.68954        1.59594        0.69169
H         -5.23926        0.91832        1.36538
H         -4.83912        2.62213        1.05150
H         -5.13617        1.52661       -0.30273
C         -2.62632       -2.32402        0.71753
H         -1.55309       -2.11711        0.76862
H         -3.05079       -2.22665        1.73060
H         -2.75863       -3.36374        0.39224
C         -4.69662       -1.68406       -0.38629
H         -4.85071       -2.72366       -0.70313
H         -5.24569       -1.53365        0.55768
H         -5.14020       -1.03794       -1.14713
C         -2.61649        1.45274        1.95494
H         -2.74565        2.48381        2.30789
H         -3.04058        0.77604        2.71529
H         -1.54385        1.25348        1.87126
C         -3.22607        0.67721       -2.05512
H         -2.83054        1.67739       -2.25282
H         -2.83381       -0.01276       -2.80745
H         -4.31593        0.70744       -2.14088
