16
C#Cc1ccc(N(=O)=O)cc1
C         -4.41585        0.00002       -0.00023
C         -3.20411       -0.00003        0.00022
C         -1.77620       -0.00002        0.00014
C         -1.06415        1.21718        0.00010
C          0.32627        1.22090        0.00004
C          1.00280       -0.00000        0.00002
N          2.47632        0.00001       -0.00005
O          3.05039       -1.09066       -0.00009
O          3.05038        1.09068       -0.00009
C          0.32629       -1.22090        0.00004
C         -1.06413       -1.21721        0.00010
H         -5.48260        0.00014       -0.00113
H         -1.61005        2.15419        0.00013
H          0.88842        2.14645        0.00002
H          0.88845       -2.14645        0.00002
H         -1.61003       -2.15422        0.00013
