24
c1(C#Cc2ccccc2)ccccc1
C         -2.03816        0.00003        0.00003
C         -0.60833        0.00006        0.00006
C          0.60833        0.00009        0.00009
C          2.03816        0.00004        0.00004
C          2.75397        0.85868        0.85845
C          4.14847        0.85544        0.85521
C          4.85044       -0.00006       -0.00006
C          4.14835       -0.85552       -0.85529
C          2.75385       -0.85866       -0.85842
C         -2.75391        0.85852       -0.85858
C         -4.14841        0.85530       -0.85542
C         -4.85044       -0.00004       -0.00004
C         -4.14841       -0.85535        0.85538
C         -2.75391       -0.85850        0.85860
H          2.20662        1.52147        1.52106
H          4.68825        1.52202        1.52160
H          5.93646       -0.00010       -0.00010
H          4.68803       -1.52213       -1.52172
H          2.20641       -1.52141       -1.52100
H         -2.20652        1.52119       -1.52128
H         -4.68814        1.52177       -1.52197
H         -5.93646       -0.00006       -0.00006
H         -4.68814       -1.52183        1.52190
H         -2.20652       -1.52114        1.52133
