26
CC#CCC/C=C/CCC
C         -5.76207       -0.57943       -0.06360
C         -4.39088       -0.07065       -0.06339
C         -3.25835        0.36100       -0.06626
C         -1.87797        0.85011       -0.06290
C         -0.85127       -0.23192        0.36104
C          0.55154        0.30795        0.40446
C          1.56445       -0.10928       -0.36379
C          2.97096        0.42129       -0.31938
C          4.00498       -0.64984        0.07717
C          5.44180       -0.11683        0.07009
H         -6.38908       -0.02925        0.64736
H         -6.21933       -0.48489       -1.05521
H         -5.79055       -1.63862        0.21696
H         -1.61206        1.22003       -1.06161
H         -1.79514        1.71110        0.61446
H         -0.91392       -1.07829       -0.33244
H         -1.14057       -0.60879        1.35114
H          0.73194        1.11523        1.11847
H          1.38242       -0.91739       -1.07645
H          3.24334        0.81726       -1.30966
H          3.03038        1.26476        0.38137
H          3.92356       -1.50191       -0.61156
H          3.75301       -1.03490        1.07368
H          5.72291        0.24614       -0.92587
H          6.15847       -0.89369        0.35764
H          5.55544        0.71878        0.77109
