14
C#Cc1cccc(F)c1
C         -3.47721       -0.61427       -0.00000
C         -2.30618       -0.30240        0.00000
C         -0.92542        0.06931        0.00000
C         -0.55054        1.42764        0.00000
C          0.79832        1.78212       -0.00000
C          1.79522        0.80179       -0.00000
C          1.40087       -0.53142       -0.00000
F          2.36035       -1.49431       -0.00000
C          0.07142       -0.92540        0.00000
H         -4.50734       -0.88992       -0.00000
H         -1.32095        2.19084        0.00000
H          1.07988        2.83054       -0.00000
H          2.85028        1.05164       -0.00000
H         -0.18394       -1.97850        0.00000
