20
C#CCOC(C)(C)C
C          3.19528       -0.59109        0.00758
C          2.24225        0.15228       -0.04651
C          1.10670        1.08455       -0.12295
O         -0.03310        0.54870       -0.78284
C         -1.05103       -0.11628        0.01355
C         -1.98184       -0.71354       -1.04452
C         -0.45323       -1.22524        0.89033
C         -1.80485        0.91632        0.86614
H          4.02871       -1.25491        0.05099
H          1.41003        1.95886       -0.71040
H          0.86558        1.44707        0.88568
H         -2.82495       -1.22579       -0.56991
H         -1.43582       -1.43077       -1.66420
H         -2.37064        0.07622       -1.69426
H          0.21114       -0.82350        1.66146
H         -1.25772       -1.77042        1.39508
H          0.12011       -1.92839        0.28052
H         -2.19876        1.71467        0.22994
H         -2.64171        0.43928        1.38703
H         -1.16088        1.36605        1.62912
