31
CC(C)CC#CCS(=O)(=O)c1ncccc1
C          3.79542       -1.17276        0.89439
C          4.48015        0.15962        0.56125
C          6.00879        0.02530        0.57427
C          4.01741        0.70956       -0.81467
C          2.57489        0.92924       -0.88665
C          1.37377        1.08112       -0.88848
C         -0.06968        1.14139       -0.81845
S         -0.71879       -0.46874       -0.16685
C         -2.49448       -0.09579        0.04410
N         -2.77148        1.02787        0.69792
C         -4.06555        1.30471        0.90622
C         -5.10074        0.46757        0.47760
C         -4.77839       -0.70248       -0.21243
C         -3.43451       -0.99912       -0.44921
O         -0.62780       -1.49258       -1.22457
O         -0.12260       -0.71074        1.15587
H          4.04013       -1.93124        0.13946
H          2.70685       -1.07096        0.93331
H          4.13562       -1.54718        1.86617
H          4.18790        0.89737        1.32113
H          6.34173       -0.70142       -0.17781
H          6.50179        0.98107        0.36085
H          6.36002       -0.32413        1.55105
H          4.31551        0.00212       -1.60170
H          4.54064        1.65121       -1.02769
H         -0.43866        1.90116       -0.12316
H         -0.54757        1.27179       -1.79482
H         -4.27806        2.22919        1.43677
H         -6.13318        0.73418        0.67893
H         -5.55790       -1.37104       -0.56496
H         -3.11307       -1.88101       -0.99139
