9
C(C#C)N
C         -0.56760        0.58752       -0.00016
H         -0.71315        1.23447       -0.87544
H         -0.71345        1.23507        0.87460
C          0.82768        0.12058        0.00019
C          1.98152       -0.24359        0.00002
H          2.99298       -0.58068       -0.00011
N         -1.53776       -0.52054        0.00017
H         -2.12644       -0.51533        0.82381
H         -2.12522       -0.51688       -0.82435
