19
C#Cc1ccc(C(=O)C)cc1
C         -4.48105       -0.09120       -0.00001
C         -3.26932       -0.05776        0.00002
C         -1.84127       -0.01622        0.00001
C         -1.16070        1.21965        0.00001
C          0.22761        1.25500       -0.00000
C          0.97777        0.06620       -0.00001
C          2.47483        0.16281       -0.00002
C          3.29326       -1.11587        0.00000
O          3.02816        1.25483        0.00000
C          0.29920       -1.16380       -0.00000
C         -1.09237       -1.20870        0.00001
H         -5.54713       -0.11979       -0.00009
H         -1.73365        2.14109        0.00001
H          0.75940        2.20059       -0.00000
H          3.06769       -1.72373        0.88353
H          4.35175       -0.85397        0.00002
H          3.06771       -1.72374       -0.88353
H          0.85121       -2.09752       -0.00001
H         -1.61006       -2.16219        0.00001
