22
CCCCCCC#C
C         -4.16714       -0.49158       -0.00000
H         -4.17510       -1.13978       -0.88447
H         -4.17516       -1.13949        0.88468
H         -5.09834        0.08527       -0.00013
C         -2.93789        0.42417       -0.00011
H         -2.97036        1.08341       -0.87872
H         -2.97043        1.08370        0.87828
C         -1.61365       -0.34967        0.00007
H         -1.58005       -1.00977        0.87901
H         -1.57999       -1.01007       -0.87865
C         -0.37700        0.55673       -0.00005
H         -0.41077        1.21664        0.87917
H         -0.41072        1.21636       -0.87947
C          0.94184       -0.22343        0.00012
H          0.98843       -0.87811        0.87933
H          0.98854       -0.87835       -0.87892
C          2.17403        0.70591        0.00008
H          2.13477        1.36432       -0.87835
H          2.13480        1.36431        0.87852
C          3.44533       -0.01827       -0.00000
C          4.48733       -0.63468       -0.00010
H          5.40731       -1.17339       -0.00029
