63
O1C(C(O[B]1=C(COC)[C]([Cu][P](c1ccccc1)(C)C)c1ccccc1)(C)C)(C)C
O          0.29473        2.99133       -0.38329
O         -0.68459        1.12303        0.51360
C         -1.09996        3.31968       -0.19262
C         -1.55194        2.24021        0.85140
C         -1.20426        4.76511        0.28528
C         -1.79008        3.15255       -1.55370
C         -1.22125        2.63028        2.29815
C         -3.01451        1.82059        0.73879
B          0.47114        1.65941       -0.05902
C          2.94688        1.77057       -0.78767
C          1.89661       -0.44319       -0.09806
C          1.79496        0.90592       -0.31344
Cu         0.31397       -1.40912        0.41353
P         -1.69016       -2.25138        0.86212
H         -0.57965        4.93889        1.16421
H         -2.24182        5.01899        0.53186
H         -0.86567        5.44029       -0.50714
H         -1.74836        2.10986       -1.88389
H         -1.26625        3.76760       -2.29165
H         -2.83914        3.46510       -1.51849
H         -1.35722        1.75453        2.94130
H         -1.87356        3.43168        2.66084
H         -0.18011        2.95479        2.38705
H         -3.25637        1.07677        1.50413
H         -3.24170        1.38244       -0.23319
H         -3.66616        2.68780        0.89719
H          2.57516        2.57218       -1.44583
H          3.68994        1.18480       -1.35069
C         -2.93483       -1.61239       -0.32889
C         -2.48315       -0.96378       -1.48870
C         -4.31517       -1.74025       -0.11330
C         -3.39506       -0.45243       -2.41419
H         -1.41613       -0.83789       -1.65089
C         -5.22611       -1.21978       -1.03273
H         -4.68867       -2.24124        0.77644
C         -4.76685       -0.57425       -2.18444
H         -3.03209        0.05124       -3.30575
H         -6.29305       -1.31741       -0.85142
H         -5.47739       -0.16786       -2.89907
O          3.57663        2.37035        0.35374
C          4.63180        3.23073       -0.01133
H          4.28289        4.06077       -0.64923
H          5.04972        3.64601        0.91103
H          5.42983        2.69487       -0.55366
C          3.17009       -1.18430       -0.26196
C          3.18566       -2.40766       -0.96145
C          4.38058       -0.74497        0.31335
C          4.35991       -3.14057       -1.11902
H          2.25063       -2.77189       -1.38342
C          5.55121       -1.49352        0.17910
H          4.38707        0.18951        0.86564
C          5.55163       -2.68885       -0.54319
H          4.34436       -4.07326       -1.67845
H          6.47033       -1.13670        0.63873
H          6.46602       -3.26724       -0.64914
C         -2.32419       -1.74496        2.52190
H         -3.36841       -2.03191        2.68174
H         -1.70223       -2.21691        3.28933
H         -2.22205       -0.66125        2.61667
C         -1.99317       -4.07558        0.86575
H         -1.35602       -4.54378        1.62303
H         -3.04185       -4.30863        1.07937
H         -1.72765       -4.48668       -0.11244
