59
O1C(C(O[B]1=C(COC)[C]([Cu][P](C)(C)CC)c1ccccc1)(C)C)(C)C
O         -0.24845        3.05459       -0.37988
O         -1.23712        1.02334        0.00820
C         -1.67323        3.28469       -0.44414
C         -2.24258        2.02540        0.30256
C         -1.98637        4.62425        0.21704
C         -2.05337        3.32079       -1.93078
C         -2.27021        2.19583        1.82721
C         -3.59886        1.54065       -0.20165
B         -0.03482        1.69762       -0.22787
C          2.51704        1.99735       -0.53383
C          1.49969       -0.31154       -0.18471
C          1.35836        1.04456       -0.31642
Cu        -0.07152       -1.39952        0.06336
P         -1.93726       -2.56560        0.33014
H         -1.57289        4.67653        1.22648
H         -3.06894        4.78965        0.26821
H         -1.54379        5.43549       -0.36964
H         -1.84280        2.35873       -2.40889
H         -1.44945        4.08508       -2.42892
H         -3.11159        3.56362       -2.07569
H         -2.46554        1.22366        2.29125
H         -3.05061        2.89557        2.14428
H         -1.30410        2.55420        2.19470
H         -3.92376        0.66689        0.37368
H         -3.55604        1.25707       -1.25582
H         -4.35742        2.32237       -0.08130
H          2.20425        2.83950       -1.17204
H          3.36657        1.49655       -1.02393
O          2.93772        2.51780        0.73558
C          3.99046        3.44623        0.60721
H          3.69931        4.31504       -0.00767
H          4.24397        3.79505        1.61316
H          4.88687        2.99054        0.15227
C          2.82281       -0.98101       -0.19898
C          3.01111       -2.14387       -0.97283
C          3.90627       -0.53738        0.58758
C          4.23362       -2.81153       -0.99725
H          2.17253       -2.51251       -1.56075
C          5.12235       -1.22299        0.58480
H          3.77832        0.35040        1.19885
C          5.29754       -2.35667       -0.21173
H          4.35399       -3.69697       -1.61751
H          5.94014       -0.86464        1.20628
H          6.24734       -2.88562       -0.21466
C         -1.84007       -4.40800        0.42653
H         -1.39445       -4.79560       -0.49489
H         -2.82311       -4.86744        0.57398
C         -2.87064       -2.13157        1.86439
H         -2.23762       -2.34024        2.73229
H         -3.08837       -1.05988        1.85660
C         -3.13538       -2.24657       -1.05415
H         -3.14625       -1.15907       -1.18396
H         -2.65771       -2.65401       -1.95422
C         -4.55906       -2.79366       -0.89818
H         -5.14989       -2.57401       -1.79465
H         -4.56823       -3.88017       -0.75718
H         -5.07506       -2.33851       -0.04603
H         -1.18813       -4.68611        1.26036
H         -3.80456       -2.69490        1.95808
