110
O1C(C(O[B]1)(C)C)(C)C.[Cu](=C(\[C]COC)/c1ccccc1)\[C]1N(c2c(cccc2C(C)C)C(C)C)CCN1c1c(cccc1C(C)C)C(C)C
O          2.82110       -0.85761       -0.19706
O          2.77619        0.87086       -1.67209
C          4.09233       -0.90523       -0.89520
C          4.17721        0.52655       -1.52372
C          5.18104       -1.24274        0.12133
C          4.00253       -2.01314       -1.95335
C          4.80194        1.56031       -0.57532
C          4.84460        0.60497       -2.89459
B          2.02546        0.15728       -0.73192
Cu         0.12001        0.55317       -0.14851
C         -2.48275        2.18212        0.87331
C          0.01971        2.50302        0.10421
C         -1.10638        1.99863        0.39657
H          5.16249       -0.55204        0.96667
H          6.17522       -1.21380       -0.34062
H          5.01445       -2.25160        0.51396
H          3.19609       -1.80788       -2.66404
H          3.78662       -2.96640       -1.46390
H          4.94186       -2.11756       -2.50705
H          4.66256        2.56277       -0.98941
H          5.87523        1.38643       -0.44001
H          4.31245        1.53704        0.40279
H          4.83097        1.64105       -3.24874
H          4.31980       -0.00695       -3.63175
H          5.88943        0.27596       -2.84226
H         -2.83956        1.28789        1.41075
H         -3.15060        2.31695        0.00462
C         -0.93050       -1.08799        0.13772
N         -0.59190       -2.05360        1.01635
N         -2.08512       -1.47608       -0.46551
C         -2.73906       -0.77094       -1.53137
C         -4.06868       -0.32074       -1.33697
C         -2.06517       -0.56349       -2.75685
C         -4.68858        0.37805       -2.37893
C         -2.73123        0.15160       -3.76051
C         -4.02472        0.62719       -3.57649
H         -5.70720        0.73156       -2.25167
H         -2.22936        0.32591       -4.70691
C          0.50072       -1.98687        1.94546
C          1.60496       -2.84561        1.77507
C          0.42478       -1.07883        3.02773
C          2.63277       -2.77301        2.72563
C          1.48160       -1.04975        3.94332
C          2.58012       -1.89098        3.79743
H          3.50140       -3.41613        2.60360
H          1.44197       -0.35898        4.77976
C         -4.87449       -0.63662       -0.07852
H         -4.17167       -0.93393        0.70815
C         -0.69228       -1.15539       -3.05831
H         -0.22669       -1.44867       -2.11780
C         -0.77504       -0.16487        3.25322
H         -1.35754       -0.13417        2.33063
C          1.81342       -3.88278        0.66581
H          2.89483       -3.85745        0.47898
C          1.49495       -5.30195        1.18321
H          0.42803       -5.41584        1.40969
H          1.75605       -6.05310        0.42783
H          2.05066       -5.52791        2.09951
C          1.15700       -3.64078       -0.70168
H          0.09521       -3.89673       -0.71360
H          1.27527       -2.60253       -1.00888
H          1.64434       -4.28084       -1.44723
C         -1.68495       -0.72314        4.36481
H         -2.03233       -1.73709        4.13309
H         -1.14939       -0.76772        5.32083
H         -2.56451       -0.08140        4.49917
C         -0.36007        1.28548        3.56241
H         -1.23018        1.94842        3.51422
H          0.07988        1.37585        4.56278
H          0.36388        1.64710        2.82794
C         -5.84703       -1.80717       -0.35253
H         -6.36054       -2.11157        0.56746
H         -6.60856       -1.49836       -1.07829
H         -5.34267       -2.68309       -0.77269
C         -5.68663        0.55469        0.46376
H         -6.50248        0.82908       -0.21419
H         -6.14168        0.28630        1.42437
H         -5.06794        1.43959        0.61602
C          0.26425       -0.14679       -3.71458
H         -0.06520        0.14069       -4.72019
H          0.36313        0.75272       -3.10108
H          1.26315       -0.58637       -3.80538
C         -0.84283       -2.42590       -3.91776
H          0.13749       -2.88459       -4.09401
H         -1.48259       -3.16810       -3.42526
H         -1.29099       -2.19294       -4.89147
H         -4.52088        1.17992       -4.36980
H          3.39722       -1.85211        4.51311
C         -3.86373        3.56372        2.19847
H         -4.26644        2.70435        2.76102
H         -3.81451        4.43017        2.86334
H         -4.55698        3.78831        1.37065
O         -2.55298        3.31967        1.73444
C          0.86192        3.68362        0.07755
C          1.97999        3.79407       -0.76255
C          0.52087        4.76205        0.91943
C          2.74279        4.96206       -0.75913
H          2.24046        2.95601       -1.39721
C          1.29564        5.91967        0.92282
H         -0.35640        4.67124        1.55343
C          2.40999        6.02507        0.08400
H          3.60550        5.03999       -1.41690
H          1.02772        6.74440        1.57896
H          3.01191        6.93041        0.08733
C         -1.63181       -3.09019        1.14746
H         -2.22918       -2.90225        2.05010
H         -1.19122       -4.08493        1.22316
C         -2.43671       -2.87526       -0.13268
H         -2.11860       -3.53724       -0.94849
H         -3.50711       -3.00010        0.01500
