62
CC1(C)OB([Cu][P](C(C)(C)C)(C(C)(C)C)C(C)(C)C)OC1(C)C
C         -4.70939        1.48064        1.29010
C         -4.44578        0.78193       -0.05208
C         -5.35780        1.36364       -1.13002
O         -3.06355        1.05809       -0.40671
B         -2.26441       -0.01103        0.00365
Cu        -0.26916       -0.01545        0.00622
P          2.02252       -0.00131        0.00062
C          2.67920       -0.52619        1.73858
C          2.46622       -2.04616        1.91827
C          1.78118        0.14916        2.80678
C          4.15754       -0.19378        2.01934
C          2.64841        1.77775       -0.41314
C          4.12651        1.88126       -0.83647
C          2.41429        2.68888        0.81291
C          1.74366        2.34933       -1.53510
C          2.67185       -1.23843       -1.33202
C          4.15692       -1.63103       -1.20880
C          2.42933       -0.63634       -2.73433
C          1.78893       -2.51106       -1.26574
O         -3.07487       -1.07227        0.41166
C         -4.45346       -0.78265        0.05353
C         -4.72046       -1.47874       -1.28934
C         -5.37387       -1.35548        1.12909
H         -4.06225        1.07562        2.07321
H         -5.75351        1.37601        1.60407
H         -4.48299        2.54535        1.18089
H         -5.08113        1.00605       -2.12367
H         -5.27536        2.45498       -1.13022
H         -6.40409        1.09845       -0.93788
H          1.43153       -2.33701        1.71179
H          2.67888       -2.30434        2.96284
H          3.13315       -2.64619        1.29747
H          1.89271        1.23115        2.84878
H          0.72313       -0.07575        2.63558
H          2.05513       -0.24482        3.79365
H          4.83388       -0.64900        1.29239
H          4.42834       -0.58058        3.01038
H          4.34678        0.88155        2.03218
H          4.37825        2.93755       -0.99781
H          4.80805        1.49300       -0.07627
H          4.32816        1.35722       -1.77304
H          1.37874        2.63585        1.16325
H          3.08222        2.46372        1.64572
H          2.60853        3.72647        0.51521
H          0.68496        2.29400       -1.26058
H          1.99887        3.40603       -1.68487
H          1.86925        1.84864       -2.49350
H          4.42063       -2.29562       -2.04184
H          4.82322       -0.76665       -1.25389
H          4.36796       -2.17478       -0.28576
H          1.38909       -0.32207       -2.86496
H          3.08402        0.20817       -2.95449
H          2.63701       -1.40957       -3.48401
H          1.92433       -3.08830       -0.35285
H          2.05429       -3.16478       -2.10625
H          0.72593       -2.26275       -1.35340
H         -4.50459       -2.54557       -1.17956
H         -4.06751       -1.07992       -2.07081
H         -5.76274       -1.36402       -1.60589
H         -5.09626       -1.00067        2.12348
H         -5.30212       -2.44758        1.12944
H         -6.41702       -1.08007        0.93430
