63
CC1(C)OB([Cu][C]2N(C3CCCCC3)C=CN2C2CCCCC2)OC1(C)C
C         -4.43837        0.88111        1.67086
C         -4.16291        1.02116        0.16595
C         -5.34066        0.46600       -0.63242
O         -2.98294        0.22603       -0.12187
B         -1.84865        1.05635       -0.10426
Cu        -0.02151        0.26863       -0.13052
C          1.62326       -0.81291       -0.10545
N          2.92613       -0.42301       -0.17554
C          3.32653        0.99286       -0.25140
C          4.46885        1.23319       -1.27420
C          5.83135        1.43588       -0.59442
C          5.81159        2.66927        0.33924
C          4.43459        2.85745        1.02863
C          3.68623        1.52414        1.15182
C          3.78737       -1.50608       -0.07160
C          3.00029       -2.61016        0.05299
N          1.68692       -2.16981        0.03312
C          0.50495       -3.05543        0.12085
C         -0.34604       -2.97997       -1.15614
C         -1.46847       -4.03911       -1.13108
C         -2.08400       -4.21592        0.28333
C         -1.84649       -2.97131        1.14987
C         -0.33908       -2.75780        1.39232
O         -2.26035        2.38870       -0.04440
C         -3.69651        2.46022       -0.24660
C         -3.92429        2.76507       -1.73480
C         -4.25994        3.59302        0.60905
H         -5.35452        1.40314        1.96745
H         -4.55005       -0.18105        1.90888
H         -3.60210        1.27277        2.25667
H         -5.10550        0.39898       -1.69639
H         -5.58290       -0.54063       -0.27690
H         -6.22863        1.09654       -0.50619
H          2.42449        1.50683       -0.59481
H          4.22755        2.13383       -1.85107
H          4.49953        0.40856       -1.99418
H          6.61724        1.54356       -1.35021
H          6.09026        0.54068       -0.01446
H          6.59832        2.56033        1.09525
H          6.05762        3.57023       -0.23534
H          3.81405        3.55186        0.44692
H          4.56053        3.31628        2.01482
H          4.31417        0.78880        1.67191
H          2.76654        1.62693        1.73704
H          4.86022       -1.40896       -0.10123
H          3.26071       -3.65306        0.14817
H          0.91825       -4.06815        0.19105
H          0.29539       -3.11285       -2.03473
H         -0.77790       -1.97554       -1.22764
H         -1.08052       -5.00117       -1.48991
H         -2.24322       -3.73218       -1.84225
H         -1.63095       -5.08522        0.78141
H         -3.15492       -4.43292        0.20334
H         -2.26835       -2.08457        0.66185
H         -2.35723       -3.06908        2.11492
H         -0.16674       -1.72239        1.70102
H          0.01282       -3.40164        2.20844
H         -4.98710        2.89852       -1.96414
H         -3.52443        1.96282       -2.36132
H         -3.39401        3.68777       -1.98803
H         -3.87283        4.55142        0.24934
H         -5.35429        3.61971        0.54717
H         -3.96901        3.48560        1.65578
