74
CC1(C)OB([Cu][P](c2cccc3c2cccc3)(c2c3ccccc3ccc2)c2cccc3c2cccc3)OC1(C)C
C          5.51239        2.56733        0.21423
C          5.38898        1.41445       -0.79293
C          6.20648        1.72487       -2.04468
O          3.98432        1.32464       -1.15936
B          3.37257        0.35061       -0.36995
Cu         1.41027        0.03301       -0.27699
P         -0.86854       -0.27340       -0.22757
C         -1.74976        0.83893       -1.40910
C         -0.91877        1.48805       -2.31190
C         -1.42030        2.42797       -3.24202
C         -2.76245        2.72856       -3.25514
C         -3.66023        2.08885       -2.35752
C         -3.16173        1.11723       -1.42111
C         -4.10484        0.47318       -0.57182
C         -5.44756        0.78311       -0.62423
C         -5.92982        1.75553       -1.53299
C         -5.05051        2.38951       -2.38257
C         -1.38309       -1.99576       -0.62725
C         -0.73784       -3.09934        0.03581
C          0.23057       -2.93681        1.06679
C          0.82278       -4.02488        1.67191
C          0.47098       -5.34145        1.28797
C         -0.46400       -5.53890        0.29554
C         -1.08603       -4.43731       -0.35491
C         -2.03949       -4.63971       -1.38973
C         -2.62768       -3.56825       -2.02105
C         -2.29609       -2.24641       -1.63864
C         -1.56436        0.08953        1.44667
C         -2.25305       -0.87603        2.16133
C         -2.75105       -0.61711        3.45984
C         -2.56374        0.61726        4.03841
C         -1.85368        1.63889        3.35130
C         -1.32790        1.37825        2.03920
C         -0.59690        2.41737        1.39599
C         -0.40591        3.64039        2.00300
C         -0.93999        3.89765        3.28878
C         -1.64533        2.91394        3.94638
O          4.33826       -0.35893        0.34138
C          5.65493        0.00585       -0.15648
C          6.64184       -0.00284        1.00870
C          6.05145       -1.06027       -1.18822
H          4.92956        2.36059        1.11621
H          5.11461        3.47722       -0.24481
H          6.55457        2.74703        0.49907
H          5.94479        2.72051       -2.41622
H          7.27937        1.71361       -1.81974
H          6.00663        1.00572       -2.84127
H          0.14985        1.28784       -2.29512
H         -0.73587        2.91497       -3.92988
H         -3.15754        3.46000       -3.95576
H         -3.76649       -0.27930        0.12614
H         -6.14087        0.27359        0.03873
H         -6.98906        1.99360       -1.56190
H         -5.40826        3.13065       -3.09290
H          0.52098       -1.94072        1.38406
H          1.56875       -3.86708        2.44489
H          0.94266       -6.19089        1.77329
H         -0.73877       -6.54523       -0.01055
H         -2.29159       -5.65724       -1.67755
H         -3.35068       -3.72520       -2.81602
H         -2.77233       -1.42417       -2.15962
H         -2.43184       -1.85233        1.72371
H         -3.28698       -1.39928        3.98948
H         -2.95146        0.82644        5.03218
H         -0.16528        2.24695        0.41622
H          0.16472        4.40943        1.49091
H         -0.78561        4.86623        3.75532
H         -2.05171        3.09666        4.93804
H          6.29412        0.62410        1.83192
H          6.75319       -1.02372        1.38697
H          7.62717        0.35274        0.68534
H          6.01404       -2.04263       -0.70846
H          5.35210       -1.06829       -2.02894
H          7.06446       -0.89662       -1.57123
