55
CC1(C)OB([Cu][C]2N(C(C)(C)C)C=CN2C(C)(C)C)OC1(C)C
C          4.36583       -0.76501       -1.74495
C          4.09918       -0.60808       -0.24008
C          5.02169       -1.53415        0.55023
O          2.72272       -1.00718       -0.01078
B          1.90523        0.13078       -0.00296
Cu        -0.08380        0.10306       -0.00215
C         -2.06059       -0.05281        0.00097
N         -2.76024       -1.23405        0.03144
C         -2.12322       -2.59722        0.06810
C         -3.21829       -3.67573        0.09298
C         -1.26989       -2.71769        1.34316
C         -1.26297       -2.78352       -1.19436
C         -4.12777       -0.99987        0.02506
C         -4.29741        0.34440       -0.01000
N         -3.02964        0.91289       -0.02454
C         -2.85089        2.40135       -0.06309
C         -1.37196        2.79759       -0.07447
C         -3.52189        2.99262        1.19215
C         -3.52384        2.92719       -1.34611
O          2.71287        1.27439        0.00417
C          4.09277        0.88687        0.23272
C          4.35892        1.04594        1.73744
C          5.00696        1.82075       -0.55804
H          3.71168       -0.10856       -2.32561
H          5.40791       -0.54232       -1.99892
H          4.14992       -1.79828       -2.03264
H          4.74494       -1.56781        1.60576
H          4.95009       -2.55089        0.15119
H          6.06485       -1.20640        0.46892
H         -2.73395       -4.65523        0.11876
H         -3.85184       -3.59843        0.98278
H         -3.84798       -3.64334       -0.80233
H         -0.83890       -3.72225        1.40106
H         -1.88341       -2.54735        2.23407
H         -0.44685       -1.99750        1.34018
H         -1.87143       -2.65854       -2.09618
H         -0.83314       -3.79024       -1.19821
H         -0.43879       -2.06528       -1.22401
H         -4.86997       -1.77799        0.04508
H         -5.20606        0.92227       -0.02535
H         -1.31191        3.89029       -0.10313
H         -0.84684        2.40742       -0.95022
H         -0.84548        2.45370        0.81962
H         -3.39642        4.07962        1.19912
H         -4.59479        2.78048        1.22537
H         -3.06076        2.58481        2.09687
H         -3.06388        2.47361       -2.22939
H         -4.59673        2.71347       -1.36695
H         -3.39868        4.01241       -1.40904
H          5.40301        0.83204        1.99075
H          3.71062        0.38402        2.31849
H          4.13436        2.07729        2.02525
H          4.92673        2.83683       -0.15906
H          6.05289        1.50186       -0.47712
H          4.72942        1.85205       -1.61343
