44
O1C(C(OB1[Cu][P](OC)(OC)c1ccccc1)(C)C)(C)C
O          2.84981        0.54809        0.98462
O          3.08004       -0.56634       -0.99595
C          4.27941        0.43426        0.76050
C          4.34934        0.10001       -0.76905
C          4.94697        1.74487        1.17082
C          4.77715       -0.71222        1.65232
C          4.35800        1.35025       -1.66038
C          5.47908       -0.84250       -1.17773
B          2.18639       -0.16975       -0.00610
Cu         0.23390       -0.57302       -0.00187
H          4.49516        2.59969        0.66274
H          6.01927        1.72527        0.94114
H          4.83127        1.89518        2.24934
H          4.30443       -1.65692        1.36693
H          4.50234       -0.49647        2.68957
H          5.86518       -0.83026        1.59644
H          4.19203        1.04416       -2.69803
H          5.31199        1.88642       -1.60258
H          3.55152        2.03303       -1.37604
H          5.43352       -1.02600       -2.25634
H          5.39870       -1.80625       -0.67012
H          6.45700       -0.40307       -0.94628
P         -2.00586       -0.91174        0.02278
O         -2.53658       -1.76307       -1.27389
O         -2.50649       -1.66140        1.39229
C         -3.02903        0.61077       -0.02345
C         -3.37742        1.19025       -1.25377
C         -3.32652        1.29294        1.16706
C         -4.03860        2.41825       -1.29016
H         -3.12895        0.67979       -2.18038
C         -3.98767        2.52073        1.12726
H         -3.03841        0.86218        2.12227
C         -4.34698        3.08274       -0.10045
H         -4.30931        2.85785       -2.24616
H         -4.21841        3.04023        2.05316
H         -4.85893        4.04058       -0.13026
C         -3.90612       -2.09069       -1.55653
H         -4.59226       -1.30389       -1.22511
C         -3.86963       -1.95208        1.73907
H         -4.55858       -1.18497        1.36963
H         -3.91906       -1.98451        2.83001
H         -4.15322       -2.92973        1.33644
H         -4.16694       -3.03757       -1.07303
H         -3.98747       -2.20599       -2.63992
