64
O1C(C(OB1[Cu][P](c1ccc(cc1)N(C)C)(c1ccccc1)c1ccccc1)(C)C)(C)C
O         -3.63641        1.69797        0.25020
O         -4.29590       -0.44328       -0.19369
C         -5.05375        1.77626       -0.05036
C         -5.51078        0.28672        0.11635
C         -5.70634        2.76788        0.91025
C         -5.17328        2.28576       -1.49401
C         -5.88606       -0.07124        1.56172
C         -6.61388       -0.16566       -0.83788
B         -3.20297        0.39269        0.02549
Cu        -1.29988       -0.19358        0.01201
P          0.88482       -0.85622       -0.01868
H         -5.49762        2.51191        1.95137
H         -6.79324        2.79442        0.76539
H         -5.31255        3.77299        0.72588
H         -4.70825        1.58236       -2.19141
H         -4.64562        3.24134       -1.57516
H         -6.21777        2.43769       -1.78880
H         -5.98369       -1.15851        1.64120
H         -6.83437        0.38767        1.86359
H         -5.10235        0.24932        2.25489
H         -6.85139       -1.21866       -0.65345
H         -6.30401       -0.06967       -1.88086
H         -7.52711        0.42266       -0.68639
C          2.07964        0.51847        0.01288
C          3.38870        0.41031        0.50760
C          1.66974        1.76447       -0.48922
C          4.26187        1.49033        0.48358
H          3.73045       -0.52916        0.93404
C          2.53207        2.85208       -0.52299
H          0.64960        1.88651       -0.84769
C          3.86166        2.74251       -0.04670
H          5.25790        1.35799        0.88832
H          2.16115        3.79277       -0.91080
C          1.35516       -1.91319        1.40874
C          2.29918       -2.94708        1.32550
C          0.73579       -1.64497        2.64010
C          2.62801       -3.69015        2.46107
H          2.77007       -3.17671        0.37396
C          1.06926       -2.38654        3.77332
H         -0.01391       -0.85909        2.70205
C          2.01703       -3.40955        3.68535
H          3.35940       -4.49075        2.38776
H          0.58286       -2.17239        4.72107
C          1.31279       -1.87085       -1.48958
C          0.31792       -2.72557       -1.99177
C          2.56620       -1.83170       -2.11708
C          0.58039       -3.54335       -3.09080
H         -0.66453       -2.73761       -1.52440
C          2.82425       -2.64844       -3.21989
H          3.33499       -1.15799       -1.74996
C          1.83485       -3.50683       -3.70521
H         -0.19639       -4.20019       -3.47260
H          3.79773       -2.61139       -3.70184
H          2.03771       -4.13900       -4.56557
H          2.27226       -3.99196        4.56662
N          4.73274        3.81492       -0.09256
C          6.02924        3.71767        0.55743
H          6.63123        2.91070        0.12101
H          6.57533        4.65141        0.41224
H          5.94451        3.53336        1.63959
C          4.24043        5.12475       -0.48830
H          3.45290        5.49847        0.18394
H          5.06659        5.83788       -0.47668
H          3.83564        5.10282       -1.50768
