49
CC1(C)OB([Cu][P](C)(c2ccccc2)c2ccccc2)OC1(C)C
C         -4.45161        0.27105       -2.14715
C         -4.45406        0.56807       -0.64040
C         -5.41115        1.71872       -0.33751
O         -3.10289        0.97598       -0.28939
B         -2.40837       -0.13023        0.20177
Cu        -0.44498       -0.15736        0.55434
P          1.81697       -0.04736        0.87343
C          2.42259       -0.00871        2.61876
C          2.76107       -1.40427        0.07441
C          3.93846       -1.95877        0.59968
C          4.60332       -2.98219       -0.08268
C          4.09997       -3.46046       -1.29565
C          2.92267       -2.91902       -1.82226
C          2.25403       -1.90259       -1.13825
C          2.54138        1.48843        0.16135
C          1.67616        2.54634       -0.15863
C          2.18647        3.74401       -0.66953
C          3.56122        3.88895       -0.87174
C          4.42807        2.83323       -0.56508
C          3.92122        1.63790       -0.05270
O         -3.28846       -1.19241        0.39874
C         -4.65238       -0.71289        0.24282
C         -5.49266       -1.81682       -0.39539
C         -5.17865       -0.40162        1.65152
H         -4.10546        1.16195       -2.67935
H         -5.45194        0.01344       -2.51117
H         -3.76798       -0.54988       -2.38113
H         -6.45016        1.41436       -0.50962
H         -5.31140        2.06110        0.69422
H         -5.18834        2.56413       -0.99585
H          3.49799        0.18114        2.67857
H          1.89613        0.79768        3.13583
H          2.18360       -0.95573        3.11069
H          4.34459       -1.60418        1.54194
H          5.51267       -3.40515        0.33505
H          4.61735       -4.25646       -1.82343
H          2.51939       -3.29479       -2.75810
H          1.32695       -1.49774       -1.53746
H          0.60437        2.42718       -0.01733
H          1.50860        4.55625       -0.91541
H          3.95754        4.81726       -1.27340
H          5.49648        2.93983       -0.73095
H          4.59895        0.81695        0.16585
H         -5.56529       -2.66557        0.29160
H         -6.50695       -1.45883       -0.60739
H         -5.04455       -2.17460       -1.32428
H         -5.09279       -1.30348        2.26460
H         -4.58517        0.38623        2.12386
H         -6.22869       -0.09076        1.63219
