38
CC1(C)OB([Cu][P](CC)(C)C)OC1(C)C
C         -3.55858       -1.51457       -1.34427
C         -3.35971       -0.78325       -0.00903
C         -4.32858       -1.33260        1.03582
O         -1.99849       -1.05784        0.42323
B         -1.17495       -0.00231        0.03162
Cu         0.81891       -0.00308        0.13613
P          3.09626        0.01355        0.26504
C          3.95342       -0.07865       -1.38336
C          5.48766       -0.06487       -1.39139
C          3.84967       -1.36718        1.23666
C          3.82828        1.50686        1.07177
O         -1.95362        1.05321       -0.44344
C         -3.35226        0.77829       -0.15433
C         -4.20686        1.32752       -1.29422
C         -3.68883        1.51034        1.15297
H         -3.35044       -2.57824       -1.19597
H         -2.86609       -1.13638       -2.10156
H         -4.58328       -1.40803       -1.71622
H         -4.09994       -0.95159        2.03292
H         -4.25360       -2.42398        1.06744
H         -5.36211       -1.06691        0.78442
H          3.57195       -0.98909       -1.86127
H          3.55590        0.75752       -1.97097
H          5.85991       -0.12013       -2.42023
H          5.88981        0.85147       -0.94750
H          5.90631       -0.91691       -0.84637
H          3.41609       -1.37133        2.24065
H          3.60769       -2.32137        0.75971
H          4.93632       -1.26690        1.31793
H          3.39785        1.61364        2.07148
H          4.91673        1.43472        1.15849
H          3.56805        2.39824        0.49374
H         -4.12334        2.41840       -1.32162
H         -5.26199        1.06760       -1.14869
H         -3.87997        0.94156       -2.26164
H         -4.74711        1.40586        1.41527
H         -3.46425        2.57360        1.02722
H         -3.08048        1.13167        1.97913
