44
CC1(C)OB([Cu][P](OC)(OC)c2ccccc2)OC1(C)C
C          4.64274        0.37088        1.89013
C          4.19937        0.87666        0.50964
C          4.86229        2.21874        0.20800
O          2.75880        1.06912        0.57471
B          2.12782       -0.06403        0.06595
Cu         0.16791       -0.43407        0.17572
P         -2.06685       -0.81476        0.18030
O         -2.60045       -1.44043        1.60455
C         -3.99706       -1.70456        1.84248
O         -2.63590       -1.84773       -0.97212
C         -1.87053       -3.04207       -1.23484
C         -3.15928        0.60566       -0.15756
C         -4.35335        0.51133       -0.88949
C         -5.14226        1.64720       -1.08250
C         -4.74361        2.87928       -0.55125
C         -3.54999        2.97927        0.16986
C         -2.75656        1.84584        0.36312
O          3.06571       -0.90324       -0.53268
C          4.33803       -0.20318       -0.61966
C          5.46865       -1.20965       -0.41874
C          4.41746        0.40061       -2.02938
H          4.32516        1.09428        2.64671
H          4.17391       -0.58933        2.12278
H          5.73046        0.25774        1.94986
H          4.44178        2.68066       -0.68722
H          5.94239        2.09471        0.06740
H          4.70238        2.90317        1.04682
H         -4.57215       -0.77254        1.84178
H         -4.39886       -2.38351        1.08294
H         -4.05568       -2.17424        2.82571
H         -0.80360       -2.80792       -1.32901
H         -2.24376       -3.44797       -2.17661
H         -2.01505       -3.77510       -0.43367
H         -4.65076       -0.44278       -1.31242
H         -6.06530        1.57305       -1.65051
H         -5.35852        3.76116       -0.70716
H         -3.23198        3.93683        0.57137
H         -1.81792        1.92578        0.90734
H          6.43974       -0.70167       -0.39278
H          5.34214       -1.77413        0.50699
H          5.47694       -1.92234       -1.24920
H          3.61128        1.12178       -2.19055
H          5.37759        0.89797       -2.20341
H          4.30353       -0.40374       -2.76199
