41
CC1(C)OB([Cu][P](CC)(C)CC)OC1(C)C
C          4.42625       -1.10737        1.25318
C          3.42261       -0.75186        0.15842
C          3.60782       -1.68704       -1.04581
O          2.07798       -0.97610        0.66306
B          1.22317       -0.01337        0.12547
Cu        -0.76963       -0.02813        0.26335
P         -3.04773       -0.03488        0.31543
C         -3.80043        1.07142       -0.97122
C         -3.28600        2.51620       -0.88103
C         -3.88685        0.50657        1.86975
C         -3.84283       -1.67897       -0.01512
C         -3.28352       -2.37001       -1.26787
O          1.96963        0.96458       -0.53311
C          3.37911        0.76527       -0.23719
C          4.19947        1.13765       -1.47025
C          3.72700        1.70499        0.92670
H          4.21191       -0.57341        2.18090
H          4.37528       -2.18024        1.46311
H          5.44784       -0.86776        0.93565
H          3.42033       -2.71520       -0.72259
H          2.89441       -1.44613       -1.83897
H          4.62304       -1.62844       -1.45265
H         -3.53590        0.64200       -1.94397
H         -4.89410        1.03105       -0.88236
H         -2.19415        2.54793       -0.96105
H         -3.70469        3.12539       -1.68890
H         -3.56724        2.98764        0.06675
H         -3.59548       -0.15782        2.68815
H         -3.56696        1.51969        2.12688
H         -4.97686        0.48898        1.76042
H         -3.65103       -2.29527        0.87130
H         -4.93008       -1.54392       -0.08691
H         -3.49694       -1.79699       -2.17638
H         -2.19743       -2.49055       -1.19609
H         -3.72989       -3.36218       -1.39197
H          3.85730        0.59915       -2.35605
H          5.26143        0.91682       -1.31101
H          4.09831        2.20929       -1.66806
H          3.14545        1.45285        1.81787
H          4.79279        1.66443        1.17592
H          3.47522        2.72937        0.63688
