48
CC1(C)OB([Cu][P](C)(c2c(C)cccc2C)C)OC1(C)C
C         -5.00825        2.03274        0.63470
C         -4.29152        0.94874       -0.16721
C         -4.60561        1.10834       -1.66199
O         -2.85593        1.12512       -0.01690
B         -2.24304       -0.12836       -0.00435
Cu        -0.27621       -0.42317       -0.09216
P          1.93563       -1.01295       -0.22497
C          2.15749       -2.42644        0.95502
C          3.32258        0.19765        0.02914
C          2.99428        1.58110       -0.02686
C          1.59245        2.10635       -0.26619
C          4.00957        2.53330        0.14714
C          5.32883        2.15302        0.37073
C          5.65206        0.80004        0.41251
C          4.67343       -0.18967        0.24213
C          5.14531       -1.62793        0.32148
C          2.27753       -1.76189       -1.88499
O         -3.21175       -1.12758        0.07972
C         -4.50121       -0.51504        0.35608
C         -5.58904       -1.31040       -0.36223
C         -4.71325       -0.59083        1.87529
H         -4.79341        3.01351        0.19918
H         -4.67578        2.04698        1.67437
H         -6.09332        1.87783        0.61298
H         -4.09653        0.34033       -2.25105
H         -5.68153        1.05018       -1.85843
H         -4.24273        2.08553       -1.99388
H          2.38397       -2.03606        1.95104
H          1.19368       -2.94069        1.00567
H          2.92745       -3.13966        0.65834
H          1.14206        1.71029       -1.18197
H          0.91103        1.85146        0.55340
H          1.60624        3.19606       -0.35334
H          3.75376        3.58827        0.10407
H          6.10137        2.90510        0.50417
H          6.68316        0.49817        0.57671
H          6.23305       -1.67273        0.22301
H          4.88773       -2.08092        1.28459
H          4.72295       -2.26004       -0.46187
H          3.27835       -2.19301       -1.96543
H          1.52975       -2.53858       -2.07053
H          2.16151       -0.98596       -2.64626
H         -5.65268       -2.31507        0.06704
H         -6.56511       -0.82500       -0.24603
H         -5.37204       -1.41352       -1.42711
H         -5.69579       -0.20490        2.16728
H         -4.64277       -1.63709        2.18681
H         -3.94011       -0.02728        2.40509
