73
O1C(C(OB1/C(=C(/COC)\[Cu][P](c1ccccc1)(n1cccc1)n1cccc1)/c1ccccc1)(C)C)(C)C
O         -2.73338        2.07948        0.33455
O         -0.68297        1.31884       -0.34784
C         -1.80947        3.17165        0.55244
C         -0.60743        2.77616       -0.37301
C         -2.50541        4.48006        0.18945
C         -1.44082        3.15567        2.04225
C         -0.81637        3.20334       -1.83183
C          0.76035        3.23004        0.12433
B         -2.00760        0.97550       -0.05451
C         -2.17639       -2.95889       -0.29571
C         -2.59627       -0.45757       -0.13812
C         -1.73177       -1.51636       -0.20380
Cu         0.14713       -1.16954       -0.06747
P          2.27150       -0.65863        0.16703
H         -2.92473        4.44294       -0.81845
H         -1.80641        5.32209        0.25197
H         -3.32728        4.66374        0.88851
H         -0.90682        2.23694        2.30353
H         -2.36139        3.19908        2.63177
H         -0.80984        4.00935        2.31112
H         -0.04832        2.74008       -2.45848
H         -0.73890        4.28956       -1.94497
H         -1.79575        2.88094       -2.19825
H          1.54027        2.92278       -0.57842
H          0.99946        2.80680        1.09996
H          0.78771        4.32333        0.20047
H         -2.27515       -3.36019        0.73368
H         -1.38646       -3.56157       -0.77656
C          3.06806        0.10728       -1.27913
C          2.21440        0.77338       -2.17428
C          4.44307        0.02889       -1.54525
C          2.74219        1.38948       -3.30887
H          1.14683        0.80560       -1.97288
C          4.96167        0.64498       -2.68460
H          5.09907       -0.52076       -0.87637
C          4.11497        1.32947       -3.56147
H          2.08042        1.90672       -3.99789
H          6.02645        0.58474       -2.89149
H          4.52459        1.80463       -4.44856
O         -3.38676       -3.13097       -1.01535
C         -4.08845       -0.54919       -0.04597
C         -4.90930        0.23335       -0.87151
C         -4.71079       -1.36336        0.91451
C         -6.30010        0.17733       -0.77056
H         -4.44812        0.89047       -1.60437
C         -6.09832       -1.41590        1.02821
H         -4.09178       -1.96222        1.57722
C         -6.90238       -0.64891        0.17984
H         -6.91384        0.78440       -1.43209
H         -6.55473       -2.05544        1.78042
H         -7.98549       -0.69025        0.26439
C         -3.94081       -4.41492       -0.86743
H         -3.24976       -5.20749       -1.20527
H         -4.21538       -4.62233        0.18147
H         -4.84629       -4.45065       -1.47983
N          2.49935        0.50722        1.41834
C          1.65783        0.58903        2.52806
C          3.51574        1.45082        1.56572
C          2.13867        1.56716        3.35986
H          0.79039       -0.05256        2.59685
C          3.31302        2.11291        2.74971
H          4.26295        1.57670        0.79713
H          1.69370        1.87262        4.29706
H          3.92930        2.91373        3.13600
N          3.32802       -1.93743        0.65257
C          3.12728       -3.25902        0.25607
C          4.54899       -1.85732        1.32075
C          4.20452       -3.99939        0.67066
H          2.22625       -3.53496       -0.27430
C          5.10053       -3.11397        1.34780
H          4.87939       -0.92184        1.74729
H          4.33188       -5.06361        0.52582
H          6.03654       -3.37916        1.82125
