74
O1C(C(OB1[Cu]C(=C=C1C=CC=C[CH]1)COC)(C)C)(C)C.P(c1ccccc1)(c1ccccc1)c1ccco1
O         -3.20456       -0.96449       -0.99963
O         -3.46628        0.48869        0.73909
C         -4.53191       -1.22592       -0.46445
C         -4.80781        0.06755        0.37567
C         -5.49016       -1.46225       -1.62878
C         -4.42511       -2.49231        0.39643
C         -5.41820        1.20739       -0.45243
C         -5.61789       -0.14571        1.65174
B         -2.55782       -0.03864       -0.17836
Cu        -0.62156        0.52624       -0.24865
P          0.99511       -1.05969       -0.01684
C         -2.05317        3.23293       -0.32919
C          0.46603        2.36441       -0.23376
C         -0.77591        2.49547       -0.30046
H         -5.46674       -0.63459       -2.34093
H         -6.51822       -1.58790       -1.26832
H         -5.20247       -2.37345       -2.16357
H         -3.72057       -2.34537        1.22059
H         -4.05267       -3.31505       -0.22228
H         -5.39649       -2.78565        0.80904
H         -5.38794        2.12854        0.13837
H         -6.45977        1.00341       -0.72375
H         -4.84208        1.37345       -1.36798
H         -5.74048        0.80927        2.17326
H         -5.11622       -0.83717        2.33222
H         -6.61500       -0.53945        1.42078
H         -2.68744        2.87526        0.49610
H         -2.59001        2.98565       -1.26185
C          2.41303       -1.09584       -1.18965
C          3.55269       -0.30879       -0.96874
C          2.31452       -1.84120       -2.37596
C          4.58087       -0.28206       -1.91169
H          3.64276        0.28553       -0.06620
C          3.34353       -1.80755       -3.31666
H          1.43614       -2.45397       -2.55971
H          5.45355        0.33724       -1.72518
H          3.25783       -2.39369       -4.22787
C          1.76095       -1.00930        1.65273
C          1.13462       -0.23882        2.64357
C          2.92735       -1.72176        1.96904
C          1.67025       -0.17458        3.93121
H          0.23077        0.31591        2.40208
C          3.46391       -1.65069        3.25438
H          3.41580       -2.32264        1.20864
H          1.17868        0.42713        4.69086
H          4.37088       -2.20074        3.49088
O         -1.80997        4.62740       -0.23774
C          1.87693        2.61574       -0.17010
C          2.56008        2.56954        1.06265
C          2.60729        2.89997       -1.34045
C          3.93200        2.80231        1.11703
H          2.00754        2.33686        1.96622
C          3.97854        3.13639       -1.27532
H          2.08823        2.92426       -2.29346
C          4.64915        3.08662       -0.05021
H          4.44357        2.75888        2.07494
H          4.52729        3.35163       -2.18828
H          5.71952        3.26786       -0.00409
C         -3.01211        5.36730       -0.22650
H         -2.73963        6.42320       -0.14814
H         -3.59598        5.21670       -1.15065
H         -3.65200        5.09798        0.63095
C          2.83798       -0.87678        4.23597
H          3.26003       -0.82257        5.23601
C          4.48130       -1.02982       -3.08588
H          5.28364       -1.00644       -3.81860
C          0.35757       -2.74481       -0.14793
C         -0.85714       -3.22141       -0.56304
O          1.19613       -3.80037        0.14508
C         -0.76774       -4.65033       -0.51936
H         -1.69991       -2.61248       -0.86107
C          0.49125       -4.93971       -0.08283
H         -1.53990       -5.36270       -0.77487
H          1.01648       -5.86280        0.11443
