74
O1C(C(O[B]1)(C)C)(C)C.[Cu]/C(=[C]/COC)/c1ccccc1.P(c1ccccc1)(c1ccccc1)c1ccco1
O          1.81004       -1.99303        1.02271
O          1.33930       -2.00679       -1.21008
C          2.06035       -3.35418        0.57442
C          2.16876       -3.17777       -0.97976
C          3.32524       -3.86539        1.25812
C          0.84728       -4.18970        1.00361
C          3.58228       -2.81808       -1.45631
C          1.61152       -4.33523       -1.80454
B          1.26251       -1.26679       -0.03292
Cu         0.44255        0.56392        0.07331
P         -1.78593        0.22122        0.07711
C          0.12292        3.80476        0.09171
C          1.91376        1.85845        0.12560
C          0.83062        2.51406        0.09787
H          4.16976       -3.19342        1.08889
H          3.59174       -4.86354        0.89067
H          3.15888       -3.93180        2.33834
H         -0.06789       -3.82006        0.53170
H          0.71961       -4.09989        2.08662
H          0.97355       -5.24885        0.75378
H          3.53416       -2.52350       -2.50924
H          4.27081       -3.66514       -1.36251
H          3.98328       -1.97027       -0.89305
H          1.71698       -4.11044       -2.87107
H          0.55131       -4.49863       -1.59804
H          2.15767       -5.26284       -1.59605
H         -0.53832        3.87873        0.97213
H         -0.53346        3.86972       -0.79185
C         -2.28946       -1.11014        1.24117
C         -3.55161       -1.71976        1.16645
C         -1.38290       -1.51445        2.23095
C         -3.90511       -2.71220        2.08017
H         -4.25079       -1.42557        0.38877
C         -1.74319       -2.50508        3.14718
H         -0.38752       -1.08178        2.26131
H         -4.88187       -3.18405        2.01432
H         -1.03261       -2.81543        3.90816
C         -2.45463       -0.29115       -1.55565
C         -1.63131       -1.05899       -2.39587
C         -3.74985        0.04927       -1.97534
C         -2.11178       -1.48846       -3.63397
H         -0.62497       -1.32490       -2.08541
C         -4.22029       -0.38094       -3.21664
H         -4.38879        0.65202       -1.33619
H         -1.46978       -2.08318       -4.27822
H         -5.22396       -0.11191       -3.53529
O          1.07129        4.86795        0.08965
C          3.36112        1.79114        0.12498
C          4.06175        0.63916        0.51494
C          4.08018        2.93706       -0.26750
C          5.45598        0.62964        0.50089
H          3.50219       -0.23283        0.83518
C          5.47313        2.91650       -0.28344
H          3.52754        3.83016       -0.54474
C          6.16643        1.76293        0.09650
H          5.98922       -0.26684        0.80769
H          6.02017        3.80397       -0.59168
H          7.25319        1.74999        0.08122
C          0.44938        6.13435        0.05878
H          1.24431        6.88497        0.06162
H         -0.16504        6.26879       -0.84808
H         -0.19652        6.29615        0.93859
C         -3.00210       -3.10311        3.07396
H         -3.27819       -3.87933        3.78276
C         -3.40294       -1.15181       -4.04678
H         -3.77038       -1.48431       -5.01408
C         -2.91761        1.54508        0.59730
C         -3.82261        1.68573        1.61602
O         -2.83216        2.72646       -0.10214
C         -4.32279        3.02664        1.54072
H         -4.09509        0.92043        2.32803
C         -3.69124        3.60717        0.48266
H         -5.05454        3.48968        2.18794
H         -3.73775        4.58612        0.02953
