73
O1C(C(O[B]1)(C)C)(C)C.[Cu]/C(=[C]/COC)/c1ccccc1.P(c1ccccc1)(n1cccc1)n1cccc1
O          2.52263       -1.16846        1.04714
O          2.36958       -1.22551       -1.23023
C          3.37258       -2.27168        0.61953
C          3.58707       -1.95142       -0.89985
C          4.63901       -2.26880        1.46936
C          2.56886       -3.55751        0.85611
C          4.75733       -0.99557       -1.16302
C          3.68261       -3.17199       -1.81140
B          1.83104       -0.69478       -0.06473
Cu         0.20912        0.48279       -0.02473
P         -1.62470       -0.80494        0.00989
C         -1.72683        3.08994       -0.09420
C          0.81868        2.35148        0.04707
C         -0.44207        2.37466       -0.03440
H          5.13988       -1.29855        1.43576
H          5.34021       -3.03842        1.12561
H          4.38326       -2.48079        2.51265
H          1.65617       -3.56443        0.25184
H          2.27068       -3.60260        1.90800
H          3.15492       -4.45233        0.62033
H          4.71741       -0.66845       -2.20654
H          5.72403       -1.47955       -0.98579
H          4.68625       -0.10418       -0.53276
H          3.81945       -2.84704       -2.84798
H          2.77358       -3.77603       -1.76513
H          4.53760       -3.80002       -1.53451
H         -2.34107        2.83572        0.78617
H         -2.30490        2.76020       -0.97407
C         -3.27943       -0.02475       -0.01146
C         -3.87107        0.32298       -1.23723
C         -3.85792        0.43042        1.18486
C         -5.02868        1.10141       -1.26219
H         -3.42964       -0.01785       -2.16895
C         -5.01600        1.20801        1.15293
H         -3.40559        0.17520        2.13835
C         -5.60227        1.54748       -0.06890
H         -5.48191        1.35863       -2.21551
H         -5.45937        1.54844        2.08456
H         -6.50264        2.15508       -0.09101
O         -1.48913        4.49153       -0.15094
C          2.11477        2.99454        0.10487
C          3.26394        2.33072        0.56083
C          2.20554        4.34215       -0.29387
C          4.48575        3.00010        0.60687
H          3.18092        1.29829        0.88323
C          3.43200        5.00137       -0.24987
H          1.30502        4.85149       -0.62496
C          4.57620        4.33294        0.19686
H          5.37010        2.47862        0.96408
H          3.49537        6.04019       -0.56346
H          5.53165        4.84999        0.22839
C         -2.69247        5.22771       -0.22684
H         -2.42049        6.28577       -0.26539
H         -3.27260        4.97324       -1.12995
H         -3.33468        5.05468        0.65301
N         -1.68725       -1.75395        1.45161
C         -0.58948       -1.95099        2.29824
C         -2.74572       -2.53750        1.91829
C         -0.96430       -2.82683        3.28217
H          0.35488       -1.46825        2.09217
C         -2.32655       -3.19812        3.04242
H         -3.69919       -2.53183        1.41294
H         -0.33294       -3.16915        4.09109
H         -2.92774       -3.87529        3.63489
N         -1.73746       -1.91763       -1.30424
C         -2.81969       -2.73679       -1.63887
C         -0.65591       -2.26325       -2.12385
C         -2.43085       -3.56498       -2.65768
H         -3.76634       -2.63288       -1.13132
C         -1.06412       -3.26534       -2.96345
H          0.29967       -1.77226       -2.01054
H         -3.05580       -4.30556       -3.13941
H         -0.45285       -3.73473       -3.72257
