73
O1C(C(O[B]1)(C)C)(C)C.[Cu]/C(=[C]/c1ccccc1)/COC.P(c1ccccc1)(n1cccc1)n1cccc1
O         -1.71395       -2.16219       -1.20099
O         -0.88578       -2.06881        0.93063
C         -1.63119       -3.55326       -0.77245
C         -1.36009       -3.44022        0.78454
C         -2.94952       -4.22980       -1.14225
C         -0.47606       -4.18046       -1.56013
C         -2.61742       -3.55539        1.65171
C         -0.26646       -4.36750        1.31233
B         -1.19227       -1.36437       -0.21380
Cu        -0.32670        0.46862       -0.30805
P          1.80910        0.37897       -0.22032
C         -3.61345        0.03308       -0.59811
C         -1.76035        1.76484       -0.09284
C         -2.25588        0.55824       -0.25067
H         -3.79985       -3.70814       -0.69885
H         -2.96186       -5.27345       -0.80814
H         -3.07198       -4.21702       -2.22996
H          0.46751       -3.66470       -1.36460
H         -0.68763       -4.08666       -2.63016
H         -0.35681       -5.24297       -1.32335
H         -2.34764       -3.34322        2.69120
H         -3.04974       -4.56082        1.60478
H         -3.35896       -2.81709        1.34335
H         -0.12068       -4.18332        2.38178
H          0.68673       -4.19595        0.80717
H         -0.54914       -5.41849        1.18426
H         -3.57734       -0.55541       -1.52590
H         -4.26926        0.90588       -0.75879
C          2.52562        0.12512        1.43429
C          1.88372       -0.79173        2.28376
C          3.65584        0.82832        1.87558
C          2.39340       -1.01636        3.56220
H          0.99073       -1.31395        1.94926
C          4.15516        0.59550        3.15800
H          4.13769        1.55356        1.22650
C          3.52834       -0.32745        3.99877
H          1.89780       -1.72460        4.22042
H          5.03062        1.13982        3.50105
H          3.91900       -0.50261        4.99759
C         -5.43186       -1.24382        0.17289
H         -6.14847       -0.41645        0.04447
H         -5.44892       -1.86033       -0.74105
H         -5.74664       -1.85729        1.02175
O         -4.13214       -0.76899        0.46050
C         -2.34664        3.08766        0.01758
C         -1.77362        4.18799       -0.64853
C         -3.49684        3.30486        0.80488
C         -2.34560        5.45500       -0.55317
H         -0.88192        4.02872       -1.24907
C         -4.05033        4.57905        0.91819
H         -3.93511        2.46327        1.33502
C         -3.48245        5.65854        0.23513
H         -1.89678        6.29005       -1.08554
H         -4.93168        4.73006        1.53693
H         -3.91785        6.65055        0.32133
N          2.52950       -0.89359       -1.14362
C          1.92005       -1.46599       -2.25864
C          3.79798       -1.45549       -0.99707
C          2.79139       -2.37306       -2.80495
H          0.90675       -1.19386       -2.51816
C          3.97939       -2.36634       -2.00654
H          4.43311       -1.16475       -0.17376
H          2.59599       -2.99150       -3.67059
H          4.86054       -2.97712       -2.15232
N          2.60890        1.78454       -0.84497
C          2.09578        3.06644       -0.64419
C          3.88843        1.89976       -1.38727
C          3.03583        3.97301       -1.06325
H          1.10530        3.18799       -0.22883
C          4.16635        3.23584       -1.53746
H          4.45793        1.01910       -1.64277
H          2.92231        5.04870       -1.05120
H          5.07428        3.64421       -1.96169
