102
O1C(C(O[B]1)(C)C)(C)C.[Cu](/C(=[C]/COC)/c1ccccc1)[C]1N(c2c(cccc2C(C)C)C(C)C)C(CC21CCCCC2)(C)C
O         -2.84604       -1.42925       -0.84864
O         -1.90062       -1.25971        1.21836
C         -3.70261       -2.21845        0.02147
C         -3.24320       -1.76472        1.45757
C         -5.15540       -1.88976       -0.32342
C         -3.42429       -3.69555       -0.28240
C         -4.06211       -0.59327        2.01588
C         -3.15268       -2.88151        2.49495
B         -1.77695       -0.91618       -0.12509
Cu        -0.26067        0.20335       -0.85849
C          1.08533        3.05981       -1.69337
C         -1.21574        1.85828       -1.25606
C          0.02552        2.06934       -1.44282
H         -5.34919       -0.81711       -0.25727
H         -5.84657       -2.41410        0.34691
H         -5.36687       -2.20814       -1.34943
H         -2.39002       -3.96206       -0.05535
H         -3.59044       -3.87301       -1.34966
H         -4.08779       -4.35543        0.28732
H         -3.59737       -0.24679        2.94396
H         -5.09312       -0.88866        2.23851
H         -4.07697        0.24567        1.31362
H         -2.78006       -2.47101        3.43932
H         -2.46656       -3.67055        2.17810
H         -4.13687       -3.32719        2.68043
H          1.56414        2.87781       -2.67142
H          1.87230        2.95446       -0.93088
C          1.17474       -0.96367       -0.37568
N          1.94449       -0.73999        0.68398
C         -2.54945        2.41234       -1.09563
C         -3.71137        1.64320       -1.26950
C         -2.67273        3.76933       -0.73662
C         -4.96874        2.21649       -1.07807
H         -3.61416        0.60030       -1.54507
C         -3.93263        4.33106       -0.53878
H         -1.76947        4.36171       -0.62727
C         -5.08587        3.55788       -0.70465
H         -5.86083        1.61092       -1.22109
H         -4.01537        5.37760       -0.25548
H         -6.06698        3.99928       -0.54892
O          0.54249        4.37932       -1.65337
C          1.54903        5.36416       -1.74268
H          1.05408        6.33838       -1.70019
H          2.26816        5.29017       -0.90907
H          2.11200        5.29273       -2.68914
C          2.30512        0.59359        1.12367
C          3.45943        1.16123        0.53006
C          1.53789        1.29919        2.06960
C          3.84510        2.44392        0.93210
C          1.97408        2.58059        2.43922
C          3.11467        3.14907        1.88623
H          4.72020        2.90376        0.48355
H          1.39614        3.14248        3.16653
H          3.42936        4.14489        2.18714
C          2.51823       -2.93718        0.11623
H          3.50469       -2.89817       -0.36125
H          2.34858       -3.97464        0.41536
C          2.49376       -1.99636        1.33464
C          3.86097       -1.79345        1.98893
H          3.81669       -1.02431        2.76646
H          4.16968       -2.73287        2.46014
H          4.63140       -1.51147        1.26855
C          1.48837       -2.47702        2.39903
H          1.76572       -3.48242        2.73597
H          1.49545       -1.81836        3.27006
H          0.46816       -2.50296        2.00735
C          1.42375       -2.39768       -0.85135
C          0.14927       -3.27408       -0.85833
C          1.93926       -2.28803       -2.31383
C          0.36855       -4.65113       -1.50116
H         -0.62648       -2.74054       -1.41599
H         -0.22703       -3.38339        0.16348
C          2.18291       -3.66288       -2.95271
H          1.18803       -1.73800       -2.89652
H          2.85621       -1.68788       -2.33993
C          0.90867       -4.51789       -2.93145
H         -0.58034       -5.20242       -1.50029
H          1.07247       -5.24548       -0.90095
H          2.54038       -3.53002       -3.98155
H          2.98326       -4.18679       -2.40935
H          1.10178       -5.50746       -3.36435
H          0.14449       -4.03794       -3.56022
C          0.25121        0.76059        2.67727
C         -0.93651        1.70081        2.39933
C          0.40014        0.53228        4.19390
H          0.00939       -0.19038        2.20186
H         -1.05587        1.87489        1.32866
H         -1.86005        1.24756        2.76992
H         -0.81097        2.67062        2.89563
H          1.26591       -0.09403        4.43600
H          0.52774        1.48345        4.72496
H         -0.49752        0.04457        4.59177
C          4.24184        0.46089       -0.57888
C          5.76654        0.56744       -0.40415
C          3.80791        0.98468       -1.96095
H          3.98950       -0.60049       -0.55752
H          6.08283        0.24414        0.59384
H          6.27235       -0.06114       -1.14615
H          6.12423        1.59255       -0.55159
H          2.73579        0.82843       -2.11054
H          4.01663        2.05682       -2.05419
H          4.35159        0.46141       -2.75728
