77
O1C(C(O[B]1)(C)C)(C)C.[Cu]/C(=[C]/COC)/c1ccccc1.P(c1ccccc1)(OC(C)C)OC(C)C
O         -0.05734        2.34617       -0.95583
O          0.35827        2.39811        1.29442
C         -0.81232        3.48419       -0.44597
C         -0.14941        3.72482        0.96046
C         -0.67245        4.63660       -1.43550
C         -2.27749        3.04062       -0.35126
C          1.05326        4.67438        0.91724
C         -1.11229        4.15744        2.06356
B          0.43113        1.65029        0.13387
Cu         0.54028       -0.38771        0.10179
C          3.03200        1.84770       -0.30690
C          2.43405       -0.70664       -0.12820
C          2.22134        0.59233       -0.12126
H          0.37552        4.86875       -1.63744
H         -1.16568        5.53806       -1.05367
H         -1.14651        4.36275       -2.38339
H         -2.39252        2.20817        0.34806
H         -2.61157        2.69285       -1.33205
H         -2.92475        3.86368       -0.03000
H          1.58521        4.61632        1.87186
H          0.73586        5.71065        0.75834
H          1.75117        4.39972        0.12293
H         -0.56321        4.27757        3.00302
H         -1.89700        3.41574        2.22495
H         -1.58052        5.11692        1.81537
H          3.04531        2.42503        0.63451
H          2.56574        2.49033       -1.07325
C          3.53154       -1.65401       -0.24858
C          3.26839       -2.93378       -0.77425
C          4.84229       -1.37060        0.18592
C          4.28081       -3.88326       -0.89792
H          2.24988       -3.16311       -1.07642
C          5.84636       -2.33230        0.08930
H          5.06000       -0.38548        0.58094
C          5.57507       -3.58910       -0.45990
H          4.05695       -4.86063       -1.31905
H          6.85038       -2.09686        0.43538
H          6.36322       -4.33378       -0.53961
C          5.15793        2.65314       -0.88501
H          4.76188        3.31008       -1.67786
H          5.25058        3.24812        0.03964
H          6.14906        2.29880       -1.18055
O          4.34976        1.51236       -0.69771
P         -1.42166       -1.22608        0.20966
C         -2.62532       -0.47660       -0.93668
C         -3.96833       -0.25359       -0.60322
C         -2.15318       -0.10671       -2.20476
C         -4.83186        0.32093       -1.53732
H         -4.32523       -0.51137        0.38872
C         -3.02023        0.46070       -3.13796
H         -1.10215       -0.24227       -2.44874
C         -4.36144        0.67270       -2.80537
H         -5.87160        0.49693       -1.27469
H         -2.64750        0.74787       -4.11716
H         -5.03643        1.12054       -3.52982
C         -2.71705       -3.58369       -0.20063
H         -3.51959       -2.99050        0.25424
C         -1.51201       -1.07340        2.87880
H         -0.48812       -1.41945        2.67974
O         -1.46922       -2.83240       -0.11427
O         -2.24629       -1.05490        1.61517
C         -2.51087       -4.86142        0.60190
H         -3.41394       -5.48168        0.57288
H         -1.67718       -5.43661        0.18517
H         -2.27887       -4.62846        1.64536
C         -2.22439       -2.05913        3.79345
H         -2.22924       -3.06162        3.35509
H         -1.72217       -2.10619        4.76585
H         -3.26174       -1.74397        3.95281
C         -1.47232        0.34814        3.42174
H         -0.93678        1.00911        2.73542
H         -2.49335        0.72389        3.55862
H         -0.96120        0.36913        4.39124
C         -3.02656       -3.84336       -1.67067
H         -3.16215       -2.90348       -2.21244
H         -2.20187       -4.39640       -2.13314
H         -3.94305       -4.43698       -1.76735
