77
O1C(C(OB1[Cu]C(=C=C1[CH]C=CC=C1)COC)(C)C)(C)C.P(c1ccccc1)(OC(C)C)OC(C)C
O          2.63795        0.84805        1.12872
O          2.76873        0.98704       -1.14700
C          3.96870        0.37472        0.78475
C          4.14224        0.91154       -0.67881
C          4.96321        0.92754        1.80231
C          3.92626       -1.15824        0.86772
C          4.70972        2.33560       -0.73879
C          4.92149       -0.00953       -1.61499
B          1.91509        1.04377       -0.05131
Cu        -0.09411        1.02693       -0.14639
C         -0.20330        4.10679       -0.33232
C         -1.90354        2.05331       -0.26195
C         -0.90774        2.81274       -0.27947
H          4.89912        2.01538        1.87530
H          5.99030        0.65269        1.53372
H          4.74663        0.51067        2.79159
H          3.21087       -1.57251        0.15275
H          3.60413       -1.44775        1.87370
H          4.90935       -1.60340        0.67917
H          4.60815        2.71274       -1.76125
H          5.76890        2.36591       -0.45976
H          4.15114        3.00281       -0.07516
H          4.97941        0.44235       -2.61097
H          4.43126       -0.98058       -1.71323
H          5.94404       -0.16439       -1.25032
H          0.48752        4.10375       -1.19241
H          0.42042        4.21098        0.57200
O         -1.13924        5.16762       -0.43189
C         -3.21505        1.46677       -0.26715
C         -3.84024        1.12571       -1.48123
C         -3.87554        1.18043        0.94304
C         -5.09174        0.51530       -1.48101
H         -3.32772        1.33420       -2.41531
C         -5.12659        0.56891        0.93444
H         -3.39302        1.43298        1.88210
C         -5.74055        0.23057       -0.27552
H         -5.56324        0.25947       -2.42645
H         -5.62487        0.35462        1.87640
H         -6.71653       -0.24705       -0.27893
C         -0.50588        6.42837       -0.49119
H         -1.29530        7.18081       -0.56650
H          0.09437        6.62927        0.41240
H          0.15545        6.51481       -1.36991
P         -0.66037       -1.13150        0.06309
C          0.10301       -0.98330        2.63130
H          0.98288       -0.53925        2.15355
C          0.54073       -2.04928        3.62411
H          1.14713       -2.81115        3.12357
H          1.13858       -1.59901        4.42409
H         -0.33217       -2.53717        4.07292
C         -0.74461        0.11964        3.25347
H         -1.01712        0.86631        2.49969
H         -1.66254       -0.29931        3.68114
H         -0.18249        0.62894        4.04425
C         -2.67722       -2.92532       -0.43917
H         -1.85670       -3.65355       -0.40857
C         -3.52865       -3.03207        0.82155
H         -2.91083       -2.89072        1.71154
H         -4.30310       -2.25817        0.80729
H         -4.00937       -4.01639        0.87140
C         -3.47741       -3.10458       -1.72197
H         -3.95791       -4.08938       -1.73885
H         -4.25009       -2.33118       -1.78452
H         -2.82537       -3.01613       -2.59671
C          0.54815       -2.28339       -0.69462
C          0.88512       -3.51497       -0.11338
C          1.20203       -1.86851       -1.86413
C          1.85112       -4.32913       -0.70652
H          0.40581       -3.81656        0.81320
C          2.16535       -2.68558       -2.45734
H          0.99347       -0.88636       -2.27958
C          2.48951       -3.91617       -1.87942
H          2.11261       -5.28023       -0.25020
H          2.67609       -2.35214       -3.35634
H          3.24869       -4.54662       -2.33478
O         -2.11203       -1.58486       -0.50792
O         -0.69168       -1.67962        1.61700
