66
O1C(C(O[B]1)(C)C)(C)C.[Cu]/C(=[C]/c1ccccc1)/COC.P(C)(N(C)C)N(C)C
O         -0.31983       -1.62756       -1.08781
O         -0.28454       -1.39823        1.19124
C         -0.36790       -2.98680       -0.56898
C         -0.70575       -2.77416        0.95961
C         -1.42466       -3.75670       -1.35796
C          1.02016       -3.59202       -0.81105
C         -2.20227       -2.84648        1.27995
C          0.07045       -3.67435        1.92015
B         -0.17668       -0.75626       -0.02610
Cu         0.68871        1.07556       -0.17671
C         -1.46157        3.63951       -0.07684
C         -1.26740        1.08587       -0.15105
C         -0.80359        2.31594       -0.08927
H         -2.39071       -3.24958       -1.32162
H         -1.54155       -4.77343       -0.96544
H         -1.11735       -3.82789       -2.40656
H          1.79050       -3.02364       -0.28230
H          1.24428       -3.54689       -1.88136
H          1.06938       -4.63741       -0.48871
H         -2.35722       -2.51225        2.31025
H         -2.57844       -3.87124        1.18634
H         -2.78611       -2.19574        0.62871
H         -0.20219       -3.42457        2.95042
H          1.15027       -3.54551        1.81771
H         -0.17400       -4.72894        1.74849
H         -1.12662        4.21846       -0.95701
H         -1.12261        4.20818        0.80907
O         -2.88495        3.54485       -0.07173
C         -3.51215        4.80481       -0.05547
H         -4.59221        4.63126       -0.04958
H         -3.24173        5.39078        0.84103
H         -3.25451        5.40732       -0.94427
C         -2.59457        0.44326       -0.18358
C         -3.45822        0.58223        0.91512
C         -3.03473       -0.28215       -1.30260
C         -4.72751        0.00633        0.89669
H         -3.12291        1.15386        1.77403
C         -4.30881       -0.85070       -1.32228
H         -2.36225       -0.41085       -2.14349
C         -5.15799       -0.71488       -0.22042
H         -5.38240        0.11956        1.75704
H         -4.63765       -1.40302       -2.19926
H         -6.14686       -1.16583       -0.23291
P          2.85113        1.08384       -0.08392
C          3.63390        2.75284       -0.09109
H          3.09634        3.40823        0.59866
H          4.69402        2.72405        0.17996
H          3.51615        3.15830       -1.10031
C          3.24930       -1.02126        1.52142
H          3.82973       -1.40340        2.36947
H          2.18666       -1.25822        1.67995
H          3.59332       -1.53663        0.62011
C          3.07371        1.13591        2.60534
H          3.34924        2.19189        2.54606
H          1.98699        1.06449        2.78535
H          3.59296        0.70561        3.46927
C          5.09796        0.12134       -1.35386
H          5.47352        0.34461       -2.36168
H          5.56817        0.80538       -0.64557
H          5.41325       -0.90025       -1.09030
C          2.94184       -0.68900       -2.18662
H          3.23479       -1.72812       -1.97036
H          1.86235       -0.61019       -2.04561
H          3.18089       -0.47882       -3.23795
N          3.49792        0.42215        1.39344
N          3.64518        0.24691       -1.31494
