95
O1C(C(O[B]1)(C)C)(C)C.[Cu]/C(=[C]/c1ccccc1)/COC.P(C1CCCCC1)(C1CCCCC1)C1CCCCC1
O          1.73579       -1.55590        1.03899
O          1.53925       -1.26103       -1.22423
C          1.98617       -2.86619        0.46027
C          2.21510       -2.54210       -1.06798
C          3.18987       -3.47683        1.17412
C          0.72989       -3.70516        0.72740
C          3.68488       -2.32149       -1.44021
C          1.57641       -3.53438       -2.03853
B          1.39328       -0.68414        0.02390
Cu         0.23288        0.93974        0.25881
P         -1.81281        0.17807        0.15784
C          1.81774        3.89393        0.35774
C          2.13651        1.35728        0.23679
C          1.43211        2.46862        0.28327
H          4.05233       -2.80889        1.12978
H          3.46242       -4.44049        0.72847
H          2.94364       -3.64417        2.22795
H         -0.14389       -3.27337        0.23000
H          0.53331       -3.71311        1.80430
H          0.84866       -4.73880        0.38548
H          3.73287       -1.92819       -2.46017
H          4.25072       -3.25888       -1.40146
H          4.16093       -1.59398       -0.78152
H          1.76095       -3.20676       -3.06670
H          0.49477       -3.60155       -1.89853
H          2.00802       -4.53442       -1.91616
H          1.41649        4.33003        1.29124
H          1.33554        4.44763       -0.46952
C         -1.88480       -0.88576       -1.37695
C         -3.06711       -1.85025       -1.58233
C         -1.60772       -0.04698       -2.64206
H         -0.98542       -1.49754       -1.22360
C         -2.80373       -2.75818       -2.79778
H         -3.99602       -1.29149       -1.74428
H         -3.21781       -2.46905       -0.69015
C         -1.35466       -0.96211       -3.84957
H         -2.46564        0.60739       -2.85171
H         -0.73915        0.60119       -2.47251
C         -2.52045       -1.93868       -4.06563
H         -3.65933       -3.42721       -2.95530
H         -1.93657       -3.40034       -2.58265
H         -1.19052       -0.35690       -4.74996
H         -0.42779       -1.52433       -3.67002
H         -2.30778       -2.60757       -4.90909
H         -3.42344       -1.36986       -4.33429
C         -2.15322       -0.99505        1.58153
C         -1.34908       -0.56562        2.82958
C         -3.63091       -1.24288        1.94494
H         -1.72253       -1.94388        1.22983
C         -1.49137       -1.58832        3.96676
H         -1.70592        0.41736        3.17214
H         -0.29279       -0.45047        2.56407
C         -3.75776       -2.27226        3.08146
H         -4.09054       -0.29842        2.26792
H         -4.19665       -1.58719        1.07331
C         -2.96252       -1.84335        4.32188
H         -0.93582       -1.24294        4.84741
H         -1.02464       -2.53369        3.65145
H         -4.81625       -2.41696        3.33262
H         -3.38196       -3.24391        2.72759
H         -3.04226       -2.60467        5.10801
H         -3.40140       -0.92053        4.72982
C         -3.16584        1.48125        0.15736
C         -2.65114        2.79471       -0.47462
C         -4.52896        1.09920       -0.45531
H         -3.31351        1.67483        1.23223
C         -3.67163        3.92950       -0.30032
H         -2.46793        2.63181       -1.54640
H         -1.68383        3.06374       -0.03661
C         -5.55117        2.23461       -0.27091
H         -4.39791        0.91316       -1.52946
H         -4.91855        0.17516       -0.01942
C         -5.04411        3.55101       -0.87606
H         -3.29518        4.84364       -0.77633
H         -3.77788        4.15397        0.77173
H         -6.50933        1.94749       -0.72279
H         -5.73962        2.37604        0.80383
H         -5.76973        4.35553       -0.70209
H         -4.95719        3.43417       -1.96666
O          3.23103        4.08378        0.30312
C          3.59869        5.44053        0.36892
H          4.69056        5.48588        0.31788
H          3.17965        6.02473       -0.46986
H          3.26782        5.91448        1.30995
C          3.55632        0.96949        0.18149
C          4.33059        1.31758       -0.93766
C          4.16816        0.26685        1.23313
C          5.67846        0.96777       -1.00525
H          3.86209        1.87110       -1.74481
C          5.51936       -0.07437        1.16740
H          3.56831       -0.02484        2.08818
C          6.27901        0.26825        0.04511
H          6.26210        1.24137       -1.88080
H          5.97914       -0.61147        1.99362
H          7.32935       -0.00604       -0.00954
