34
P(c1ccc(cc1)F)(c1ccc(cc1)F)c1ccc(cc1)F
P          0.00019        0.00016        1.44061
C         -1.15018        1.19370        0.61834
C         -0.85036        1.90276       -0.55620
C         -2.40386        1.39528        1.22135
C         -1.77477        2.78333       -1.11984
H          0.11331        1.77038       -1.03797
C         -3.34273        2.26262        0.66511
H         -2.65071        0.86784        2.13955
C         -3.00863        2.94539       -0.49984
H         -1.55465        3.33975       -2.02511
H         -4.31439        2.42386        1.12011
C         -0.45846       -1.59281        0.61821
C         -0.00554       -2.77937        1.22063
C         -1.22340       -1.68757       -0.55570
C         -0.28758       -4.02607        0.66444
H          0.57535       -2.72956        2.13841
C         -1.52413       -2.92836       -1.11927
H         -1.59122       -0.78681       -1.03699
C         -1.04690       -4.07800       -0.49989
H          0.05908       -4.94820        1.11902
H         -2.11683       -3.01585       -2.02404
C          1.60896        0.39947        0.61805
C          2.41135        1.38315        1.22181
C          2.07217       -0.21378       -0.55733
C          3.63203        1.76219        0.66555
H          2.07872        1.85987        2.14068
C          3.29702        0.14614       -1.12105
H          1.47495       -0.98123       -1.03963
C          4.05532        1.13239       -0.50025
H          4.25827        2.52206        1.12120
H          3.66813       -0.32199       -2.02697
F          5.23909        1.48528       -1.04114
F         -3.90645        3.79384       -1.04067
F         -1.33318       -5.27970       -1.04067
