77
O1C(C(O[B]1)(C)C)(C)C.[Cu]/C(=[C]/c1ccccc1)/COC.P(c1ccc(cc1)F)(c1ccc(cc1)F)c1ccc(cc1)F
O          1.07973       -2.50182        1.18647
O          1.12430       -2.46030       -1.10443
C          0.65642       -3.82996        0.75573
C          1.15043       -3.87077       -0.73562
C          1.29490       -4.86311        1.67776
C         -0.87240       -3.86590        0.88566
C          2.59994       -4.34276       -0.88503
C          0.24150       -4.63625       -1.69292
B          1.17122       -1.71305        0.05138
Cu         0.82004        0.25768        0.00308
P         -1.30571        0.67860       -0.08216
C          3.85706       -0.98567        0.58866
C          2.53307        1.18102        0.08774
C          2.68956       -0.11635        0.23896
H          2.38033       -4.74806        1.71481
H          1.06037       -5.87979        1.34177
H          0.90636       -4.74061        2.69397
H         -1.34051       -3.12189        0.23390
H         -1.14684       -3.63051        1.91893
H         -1.27571       -4.85318        0.63748
H          2.93242       -4.14268       -1.90748
H          2.69458       -5.41561       -0.68486
H          3.26097       -3.79095       -0.21448
H          0.65736       -4.59285       -2.70488
H         -0.76252       -4.20861       -1.72157
H          0.16886       -5.68983       -1.39916
H          3.57446       -1.80497        1.26685
H          4.59466       -0.34850        1.10818
C         -1.99471        0.63952        1.61883
C         -2.99059        1.51856        2.06797
C         -1.49219       -0.34034        2.49521
C         -3.49230        1.41816        3.36633
H         -3.37371        2.29264        1.41038
C         -1.98944       -0.45020        3.79150
H         -0.70535       -1.01355        2.16403
C         -2.98418        0.43168        4.20432
H         -4.25950        2.09059        3.73540
H         -1.61288       -1.19576        4.48387
C         -1.77108        2.30908       -0.78347
C         -3.05526        2.60071       -1.27133
C         -0.77782        3.30157       -0.82213
C         -3.35260        3.86817       -1.76915
H         -3.82551        1.83508       -1.27678
C         -1.06440        4.57342       -1.31508
H          0.22668        3.05941       -0.48146
C         -2.35005        4.83456       -1.77715
H         -4.33598        4.11561       -2.15486
H         -0.30930        5.35121       -1.35762
C         -2.31695       -0.54771       -0.99986
C         -1.71579       -1.22693       -2.07188
C         -3.64435       -0.84771       -0.65495
C         -2.43347       -2.17008       -2.80586
H         -0.67108       -1.05028       -2.30694
C         -4.36978       -1.79520       -1.37651
H         -4.11148       -0.35479        0.19278
C         -3.75041       -2.43685       -2.44463
H         -1.98363       -2.70912       -3.63266
H         -5.39393       -2.04695       -1.12216
C          5.63642       -2.21440       -0.34402
H          6.40015       -1.56143        0.10950
H          5.47469       -3.07304        0.32952
H          6.00695       -2.58422       -1.30381
O          4.43711       -1.51399       -0.60338
C          3.46809        2.29296        0.09015
C          3.11193        3.53646        0.64524
C          4.75053        2.15717       -0.48341
C          4.01310        4.59940        0.65370
H          2.12121        3.64760        1.07930
C          5.63989        3.23049       -0.49541
H          5.02289        1.20469       -0.93090
C          5.27918        4.45346        0.07820
H          3.72503        5.54850        1.09948
H          6.62097        3.11192       -0.94938
H          5.97585        5.28768        0.07114
F         -2.63492        6.05864       -2.26028
F         -3.46537        0.33142        5.45829
F         -4.44448       -3.35701       -3.14143
