80
O1C(C(O[B]1)(C)C)(C)C.[Cu]/C(=[C]/c1ccccc1)/COC.P(c1ccc(cc1)C#N)(c1ccc(cc1)C#N)c1ccc(cc1)C#N
O          0.49461       -2.77659        1.17674
O          0.54874       -2.72463       -1.11418
C         -0.27432       -3.93741        0.73428
C          0.18602       -4.09450       -0.76055
C          0.06310       -5.11447        1.64265
C         -1.75495       -3.55920        0.87361
C          1.44953       -4.94409       -0.92404
C         -0.90007       -4.56929       -1.72107
B          0.80405       -2.03687        0.04932
Cu         1.00118       -0.03783        0.01744
P         -0.92304        0.93518       -0.07801
C          3.57806       -2.08503        0.58133
C          2.89671        0.36876        0.11253
C          2.69277       -0.92333        0.24932
H          1.13912       -5.29794        1.67472
H         -0.43878       -6.02569        1.29775
H         -0.27506       -4.90303        2.66214
H         -2.00580       -2.70742        0.23380
H         -1.95339       -3.27383        1.91167
H         -2.41169       -4.39607        0.61528
H          1.82024       -4.83247       -1.94674
H          1.24582       -6.00341       -0.73464
H          2.23946       -4.60315       -0.25273
H         -0.49266       -4.62363       -2.73578
H         -1.75288       -3.88795       -1.73468
H         -1.25351       -5.56851       -1.44244
H          3.08428       -2.80365        1.25257
H          4.46203       -1.67892        1.10415
C         -1.62457        1.06807        1.61700
C         -2.34806        2.18035        2.06969
C         -1.41542       -0.02428        2.47839
C         -2.87205        2.20066        3.36027
H         -2.49985        3.03756        1.42159
C         -1.93945       -0.01038        3.76636
H         -0.83589       -0.88032        2.14179
C         -2.67375        1.10234        4.21253
H         -3.43133        3.06127        3.71267
H         -1.77782       -0.85171        4.43242
C         -0.94668        2.64153       -0.76730
C         -2.10685        3.26039       -1.25913
C          0.27436        3.33315       -0.79275
C         -2.05483        4.56231       -1.74774
H         -3.05126        2.72460       -1.27271
C          0.33400        4.63697       -1.27694
H          1.17652        2.83075       -0.44966
C         -0.83277        5.25773       -1.75290
H         -2.94916        5.04411       -2.12944
H          1.27795        5.17179       -1.29817
C         -2.21978        0.03107       -1.01821
C         -1.80300       -0.75936       -2.10071
C         -3.57931        0.06882       -0.67094
C         -2.73218       -1.48211       -2.84253
H         -0.74675       -0.84680       -2.33355
C         -4.51377       -0.66021       -1.40104
H         -3.90970        0.65251        0.18316
C         -4.09288       -1.43684       -2.49388
H         -2.40850       -2.09712       -3.67559
H         -5.56408       -0.63828       -1.12910
C          4.95305       -3.73678       -0.38170
H          5.86744       -3.32092        0.07170
H          4.56827       -4.52839        0.28291
H          5.20284       -4.17873       -1.34969
O          3.98604       -2.73318       -0.62103
C          4.09419        1.19139        0.11864
C          4.08040        2.48385        0.67504
C          5.29436        0.71764       -0.45243
C          5.23235        3.26792        0.68708
H          3.15482        2.85400        1.10957
C          6.43780        1.51478       -0.46071
H          5.30336       -0.27182       -0.90235
C          6.41450        2.78912        0.11392
H          5.20756        4.25874        1.13401
H          7.35263        1.13961       -0.91296
H          7.30844        3.40703        0.10960
C         -3.21728        1.11872        5.53958
N         -3.66188        1.13042        6.61408
C         -0.77934        6.60039       -2.25478
N         -0.73965        7.69013       -2.65866
C         -5.05027       -2.19893       -3.24153
N         -5.82624       -2.81937       -3.84595
