58
O1C(C(O[B]1)(C)C)(C)C.[Cu](=C([C]COC)c1ccccc1)[C]1N(C=CN1C)C
O         -2.16726        0.44052       -1.06288
O         -1.90807        1.05230        1.12075
C         -3.45365        0.97382       -0.65111
C         -3.07825        1.77162        0.64439
C         -4.02537        1.81344       -1.79026
C         -4.36214       -0.23339       -0.37611
C         -2.63618        3.21308        0.35680
C         -4.13776        1.75889        1.74364
B         -1.32805        0.37012        0.05572
Cu         0.36780       -0.71185        0.02431
C          3.53459       -1.44928       -0.24843
C          1.83114        0.55807       -0.01195
C          2.33502       -0.60911       -0.10661
H         -3.31956        2.58229       -2.11138
H         -4.96120        2.29807       -1.48692
H         -4.23785        1.17122       -2.65163
H         -3.95343       -0.84926        0.43112
H         -4.41437       -0.84947       -1.27993
H         -5.37928        0.07165       -0.10694
H         -2.20250        3.63717        1.26825
H         -3.47897        3.84192        0.04927
H         -1.87066        3.24069       -0.42395
H         -3.77611        2.32452        2.60850
H         -4.35707        0.74187        2.07655
H         -5.06794        2.22391        1.39531
H          3.45960       -2.05833       -1.16770
H          3.60259       -2.16570        0.59129
C         -0.25362       -2.56096        0.05851
C         -1.37689       -4.48210       -0.39310
H         -1.99283       -5.15316       -0.97167
C         -0.78019       -4.63915        0.81640
H         -0.78486       -5.46748        1.50799
C          0.65139       -3.16823        2.28710
H          1.16993       -4.06908        2.62699
H          1.38038       -2.38705        2.06036
H         -0.01877       -2.81171        3.07595
C         -1.45989       -2.62931       -2.11181
H         -1.64069       -1.56137       -1.97200
H         -0.68174       -2.77954       -2.86693
H         -2.38200       -3.11475       -2.44221
N         -0.09271       -3.45992        1.07023
N         -1.05037       -3.20780       -0.83544
C          2.03260        1.99500        0.02338
C          1.03870        2.87052        0.48631
C          3.26604        2.52127       -0.40827
C          1.26667        4.24582        0.50666
H          0.10136        2.45421        0.83625
C          3.48449        3.89722       -0.39002
H          4.03696        1.83365       -0.74387
C          2.48595        4.76534        0.06388
H          0.48823        4.91341        0.86836
H          4.43792        4.29498       -0.72940
H          2.65976        5.83844        0.07511
O          4.70799       -0.64067       -0.29275
C          5.88253       -1.40467       -0.45868
H          6.72280       -0.70539       -0.47971
H          6.03198       -2.11530        0.37227
H          5.87154       -1.97768       -1.40176
