65
O1C(C(OB1[Cu]C(=C=C1C=C[CH]C=C1)COC)(C)C)(C)C.P(CC)(CC)CC
O          2.57570       -1.08072        0.58084
O          2.91271        0.72964       -0.76962
C          3.98744       -1.10329        0.23707
C          4.22540        0.36039       -0.26896
C          4.78886       -1.50263        1.47324
C          4.15586       -2.15807       -0.86559
C          4.55538        1.34422        0.86272
C          5.24226        0.49944       -1.39891
B          1.95158       -0.05933       -0.14081
Cu        -0.04743        0.19496       -0.18333
P         -1.20233       -1.75343       -0.19585
C          0.76644        3.14508       -0.01462
C         -1.48567        1.70874       -0.05248
C         -0.30574        2.13301       -0.04358
H          4.56081       -0.85619        2.32356
H          5.86597       -1.45372        1.27287
H          4.54144       -2.53106        1.75694
H          3.58166       -1.88238       -1.75543
H          3.77391       -3.11638       -0.49901
H          5.20590       -2.28876       -1.14962
H          4.49692        2.36443        0.47024
H          5.56173        1.18354        1.26506
H          3.83108        1.25312        1.67812
H          5.32687        1.55131       -1.69120
H          4.94045       -0.06998       -2.28073
H          6.23218        0.15329       -1.07792
H          1.44519        2.97192       -0.86408
H          1.37315        2.99324        0.89525
O          0.21020        4.45010       -0.04438
C         -2.90872        1.55027       -0.00134
C         -3.66231        1.39202       -1.18350
C         -3.57917        1.49265        1.23842
C         -5.03670        1.17289       -1.12231
H         -3.15250        1.43873       -2.14140
C         -4.95360        1.26936        1.28920
H         -3.00617        1.61406        2.15271
C         -5.69009        1.10373        0.11229
H         -5.60130        1.05503       -2.04373
H         -5.45280        1.22540        2.25384
H         -6.76128        0.92845        0.15622
C          1.21006        5.44643       -0.04637
H          0.70100        6.41369       -0.07400
H          1.83860        5.39967        0.85950
H          1.87032        5.36414       -0.92626
C         -0.04807       -3.21728       -0.12184
H          0.21316       -3.43623       -1.16625
H          0.86917       -2.83348        0.33708
C         -2.32543       -2.05724       -1.64479
H         -1.71219       -1.90105       -2.54149
H         -3.04737       -1.23157       -1.62002
C         -2.32535       -1.91067        1.27310
H         -3.17542       -1.24892        1.07056
H         -2.71397       -2.93152        1.35979
C         -0.52659       -4.48601        0.59586
H         -1.44539       -4.89361        0.16304
H          0.24331       -5.26454        0.53737
H         -0.71617       -4.29515        1.65769
C         -3.05031       -3.40684       -1.72124
H         -3.72709       -3.42869       -2.58373
H         -2.34484       -4.23638       -1.83518
H         -3.65190       -3.59500       -0.82530
C         -1.62680       -1.47422        2.56872
H         -1.26460       -0.44343        2.48154
H         -2.31694       -1.52443        3.41871
H         -0.76196       -2.10722        2.79818
