53
O1C(C(O[B]1)(C)C)(C)C.[Cu]/C(=[C]/COC)/c1ccccc1.P(C)C
O         -2.12288        0.42395       -1.13025
O         -2.23718       -0.65589        0.87774
C         -3.51728        0.48770       -0.72372
C         -3.42692        0.17828        0.80890
C         -4.06345        1.86857       -1.07647
C         -4.25960       -0.59650       -1.51578
C         -3.14115        1.42341        1.66016
C         -4.60561       -0.59937        1.38716
B         -1.41925       -0.34727       -0.21125
Cu         0.50118       -0.94513       -0.29611
P          0.25247       -3.17318       -0.22715
C          3.74995       -0.98321       -0.11181
C          1.65378        0.62914       -0.16745
C          2.39960       -0.39774       -0.16816
H         -3.44819        2.66257       -0.64701
H         -5.09147        1.98599       -0.71341
H         -4.06759        1.99657       -2.16379
H         -3.87335       -1.58977       -1.26612
H         -4.09548       -0.42792       -2.58450
H         -5.33757       -0.57841       -1.32074
H         -2.88567        1.10483        2.67554
H         -4.00998        2.08885        1.71200
H         -2.28963        1.98326        1.26075
H         -4.44000       -0.78014        2.45440
H         -4.72666       -1.56776        0.89596
H         -5.53781       -0.03250        1.27812
H          3.95600       -1.54923       -1.03807
H          3.81383       -1.70952        0.71890
O          4.71711        0.04616        0.06171
C          1.48266        2.06500       -0.05968
C          0.27551        2.70707       -0.37686
C          2.58053        2.83269        0.37745
C          0.16667        4.09168       -0.24995
H         -0.56021        2.11373       -0.73007
C          2.46007        4.21457        0.50512
H          3.51422        2.32598        0.60417
C          1.25293        4.84929        0.19515
H         -0.77149        4.58038       -0.50144
H          3.31086        4.79910        0.84636
H          1.16222        5.92771        0.29690
C          6.03468       -0.45781        0.12705
H          6.70064        0.39901        0.25831
H          6.16887       -1.14794        0.97737
H          6.31646       -0.99040       -0.79686
H         -0.57132       -3.66876       -1.26440
C          1.62384       -4.42182       -0.26220
H          2.18988       -4.31259       -1.19249
H          2.30143       -4.21691        0.57321
H          1.25561       -5.45024       -0.18056
C         -0.72265       -3.64977        1.26749
H         -0.10412       -3.47477        2.15393
H         -1.59193       -2.98919        1.32815
H         -1.03057       -4.69968        1.24407
