108
O1C(C(OB1/[Cu](=C(\COC)/[C]c1ccccc1)/[C]1N(C=CN1c1c(cccc1C(C)C)C(C)C)c1c(cccc1C(C)C)C(C)C)(C)C)(C)C
O          3.28219       -0.21228        0.07825
O          2.56676       -2.16777        0.99558
C          4.45147       -0.80102        0.70886
C          4.00873       -2.29108        0.90089
C          5.64952       -0.58290       -0.21230
C          4.67716       -0.07590        2.04193
C          4.30646       -3.16813       -0.32404
C          4.52393       -2.97362        2.16570
B          2.16290       -0.99650        0.34671
Cu         0.21792       -0.61210       -0.15014
C          0.69671       -3.60589       -0.93920
C         -1.27951       -1.85704       -0.84605
C         -0.13744       -2.39651       -0.78482
H          5.45404       -0.96276       -1.21721
H          6.54642       -1.07350        0.18455
H          5.85377        0.48970       -0.29687
H          3.81427       -0.19749        2.70296
H          4.81043        0.99283        1.85488
H          5.57007       -0.44888        2.55523
H          3.79326       -4.12779       -0.20857
H          5.37960       -3.35906       -0.43504
H          3.93749       -2.69569       -1.23939
H          4.14027       -3.99824        2.21047
H          4.19056       -2.45261        3.06592
H          5.61961       -3.01852        2.16979
H          1.13389       -3.87139        0.03446
H          1.54507       -3.38770       -1.61073
C         -0.34519        1.23564        0.19352
C         -1.29993        3.13840        1.02124
C         -0.32751        3.51926        0.15966
H         -1.99380        3.70963        1.61599
H          0.01040        4.49344       -0.15250
N          0.25805        2.35227       -0.31474
N         -1.31088        1.74409        1.01873
C         -2.31987        0.97807        1.70309
C         -3.66118        1.15012        1.30138
C         -1.94752        0.12459        2.76012
C         -4.64576        0.46991        2.02696
C         -2.97472       -0.54266        3.44006
C         -4.31064       -0.36495        3.08880
H         -5.68700        0.58219        1.74019
H         -2.72033       -1.20281        4.26379
C          1.35847        2.32230       -1.24048
C          2.64851        2.65340       -0.78878
C          1.08765        1.95294       -2.57360
C          3.68032        2.61658       -1.73636
C          2.15957        1.92740       -3.47205
C          3.44718        2.25762       -3.05900
H          4.69120        2.85704       -1.41581
H          1.98065        1.65068       -4.50677
C         -4.07484        2.03326        0.12524
H         -3.17316        2.43315       -0.34549
C         -0.50218       -0.07044        3.20403
H          0.15199        0.42121        2.48255
C         -0.31934        1.63760       -3.07109
H         -0.99238        1.58869       -2.21161
C          3.04210        3.07947        0.62874
H          4.08435        2.75069        0.72383
C          3.05870        4.61746        0.75481
H          2.04583        5.03104        0.69837
H          3.48301        4.91542        1.72128
H          3.65581        5.07792       -0.04000
C          2.29061        2.44197        1.81109
H          1.32164        2.91225        1.99639
H          2.13854        1.37593        1.64422
H          2.88969        2.56731        2.72075
C         -0.82796        2.76155       -3.99425
H         -0.81760        3.73047       -3.48138
H         -0.20294        2.85109       -4.89088
H         -1.85540        2.55578       -4.31739
C         -0.39392        0.26605       -3.76308
H         -1.42704        0.05998       -4.06468
H          0.23071        0.22764       -4.66315
H         -0.07445       -0.52903       -3.08224
C         -4.91611        3.23156        0.60547
H         -5.16208        3.88880       -0.23675
H         -5.85828        2.89726        1.05528
H         -4.38522        3.82579        1.35858
C         -4.81730        1.23942       -0.96334
H         -5.74355        0.79438       -0.58581
H         -5.07989        1.90659       -1.79351
H         -4.19750        0.42933       -1.35288
C         -0.10428       -1.55780        3.21252
H         -0.64798       -2.11974        3.98175
H         -0.30088       -2.01896        2.23964
H          0.96802       -1.65959        3.40793
C         -0.25547        0.58937        4.57315
H          0.79547        0.47572        4.86444
H         -0.48787        1.66034        4.54486
H         -0.87441        0.13112        5.35413
H         -5.09032       -0.88812        3.63615
H          4.27075        2.22825       -3.76763
C          0.64935       -5.85486       -1.59492
H          1.04652       -6.20456       -0.62625
H         -0.02677       -6.61559       -1.99514
H          1.49986       -5.73384       -2.28848
O         -0.09359       -4.66469       -1.46016
C         -2.69452       -1.92938       -1.10498
C         -3.19688       -1.95416       -2.42141
C         -3.60327       -2.03399       -0.03448
C         -4.56447       -2.09438       -2.65383
H         -2.50182       -1.88568       -3.25187
C         -4.96563       -2.18998       -0.27607
H         -3.22645       -1.99021        0.98179
C         -5.45604       -2.22043       -1.58456
H         -4.93422       -2.11630       -3.67608
H         -5.64830       -2.27455        0.56559
H         -6.52071       -2.33510       -1.76971
