108
O1C(C(OB1/C(=C(/COC)\[Cu][C]1N(C=CN1c1c(cccc1C(C)C)C(C)C)c1c(cccc1C(C)C)C(C)C)/c1ccccc1)(C)C)(C)C
O          3.12411        2.77014        0.43938
O          1.30176        1.75919       -0.50189
C          2.42441        3.80226       -0.30031
C          0.99529        3.17001       -0.47130
C          2.46368        5.09531        0.50906
C          3.16887        3.97901       -1.62913
C          0.08781        3.38931        0.74725
C          0.26556        3.53017       -1.76120
B          2.47267        1.56897        0.22739
C          2.11331       -1.99385        1.76064
C          2.89478        0.18693        0.76923
C          1.86547       -0.66147        1.09048
Cu         0.05678       -0.33839        0.50456
H          2.08310        4.94353        1.52154
H          1.86777        5.87568        0.02131
H          3.49603        5.45120        0.58652
H          3.14128        3.05514       -2.21458
H          4.21645        4.21291       -1.41711
H          2.74342        4.79127       -2.22850
H         -0.78322        2.73169        0.66236
H         -0.25398        4.42688        0.82555
H          0.61165        3.12311        1.67054
H         -0.67248        2.96882       -1.81327
H          0.85783        3.27369       -2.64163
H          0.02890        4.59943       -1.79522
H          3.06965       -2.04571        2.31008
H          2.12182       -2.78431        0.99874
C         -1.59201       -0.47285       -0.47318
C         -2.88180       -1.35764       -2.13354
C         -3.67863       -0.55341       -1.38713
H         -3.09198       -1.97512       -2.99228
H         -4.72812       -0.32438       -1.46284
N         -1.61655       -1.29477       -1.56356
N         -2.87479       -0.01341       -0.38174
C         -0.51369       -2.16821       -1.89361
C          0.56100       -1.66619       -2.65357
C         -0.54143       -3.47172       -1.36797
C          1.60960       -2.54888       -2.93112
C          0.53263       -4.31497       -1.68071
C          1.59251       -3.86148       -2.45898
H          2.46184       -2.20574       -3.50639
H          0.54402       -5.32888       -1.29162
C         -3.36300        0.81681        0.69160
C         -3.76654        2.13590        0.40668
C         -3.43866        0.25766        1.98812
C         -4.26362        2.90453        1.46801
C         -3.92737        1.07861        3.01006
C         -4.33802        2.38599        2.75557
H         -4.58857        3.92329        1.28274
H         -3.99480        0.69112        4.02031
C         -3.71491        2.72796       -0.99887
H         -3.02441        2.12240       -1.59691
C         -3.06777       -1.19895        2.26232
H         -2.18515       -1.44109        1.66403
C          0.58315       -0.21513       -3.12121
H          0.16433        0.39050       -2.31159
C         -1.65372       -3.96392       -0.44928
H         -2.36019       -3.14542       -0.28874
C         -2.43903       -5.12314       -1.08918
H         -1.79500       -5.99364       -1.26047
H         -3.25833       -5.43734       -0.43185
H         -2.86808       -4.83019       -2.05484
C         -1.09963       -4.34945        0.93479
H         -1.92329       -4.64336        1.59781
H         -0.41251       -5.20133        0.86771
H         -0.55860       -3.51903        1.39920
C         -0.29362       -0.02411       -4.37453
H          0.09366       -0.61503       -5.21366
H         -1.32946       -0.33078       -4.19474
H         -0.30239        1.03009       -4.67709
C          2.00146        0.31906       -3.36163
H          2.62804        0.17386       -2.47662
H          2.48440       -0.15955       -4.22229
H          1.95614        1.39259       -3.57158
C         -2.68284       -1.47694        3.72173
H         -2.27016       -2.48811        3.79922
H         -1.91912       -0.77590        4.07190
H         -3.54541       -1.41892        4.39692
C         -4.21202       -2.13546        1.82172
H         -5.12050       -1.93526        2.40302
H         -4.45382       -2.01184        0.76141
H         -3.92731       -3.18173        1.98192
C         -5.10468        2.67563       -1.66780
H         -5.82265        3.27856       -1.09929
H         -5.05619        3.07618       -2.68716
H         -5.50197        1.65792       -1.72300
C         -3.19806        4.17888       -1.01898
H         -3.01639        4.49510       -2.05224
H         -3.93001        4.87296       -0.59062
H         -2.26606        4.28382       -0.46056
H          2.42150       -4.52659       -2.68622
H         -4.71848        3.00089        3.56685
C          0.97235       -1.52538        3.77915
H          0.21990       -1.94715        4.45135
H          1.93572       -1.46423        4.31311
H          0.66992       -0.50735        3.48889
O          1.05810       -2.37998        2.65783
C          4.34324       -0.11473        0.96456
C          5.21122        0.80821        1.57865
C          4.89698       -1.32287        0.50210
C          6.56521        0.52014        1.74817
H          4.81237        1.75799        1.92008
C          6.25209       -1.61198        0.66826
H          4.25149       -2.03294       -0.00847
C          7.09399       -0.69237        1.29677
H          7.21215        1.24670        2.23482
H          6.65142       -2.55470        0.30082
H          8.15014       -0.91431        1.42799
