38
O1C(C(OB1[Cu][P](OC)(OC)OC)(C)C)(C)C
O          2.24753       -1.13973        0.18612
O          2.24814        1.07816       -0.36167
C          3.63539       -0.79969       -0.07711
C          3.61612        0.76503        0.01381
C          4.51652       -1.50005        0.95454
C          3.95767       -1.31919       -1.48531
C          3.81279        1.28935        1.44328
C          4.56442        1.48331       -0.94325
B          1.45598       -0.03947       -0.12405
Cu        -0.53636       -0.06149       -0.20922
P         -2.79389        0.01325       -0.12552
H          4.20004       -1.26905        1.97411
H          5.56577       -1.20376        0.83629
H          4.45076       -2.58468        0.81939
H          3.33056       -0.82477       -2.23341
H          3.74574       -2.39228       -1.52238
H          5.01001       -1.16189       -1.74687
H          3.57839        2.35830        1.46236
H          4.84312        1.15190        1.78984
H          3.13659        0.78182        2.13808
H          4.46696        2.56638       -0.81478
H          4.33566        1.24721       -1.98476
H          5.60618        1.20712       -0.74028
O         -3.44018       -0.50048        1.29679
O         -3.48530        1.48824       -0.19420
O         -3.61944       -0.75858       -1.28129
C         -2.94805        2.51769        0.65757
H         -1.85197        2.53821        0.60417
H         -3.34761        3.46469        0.29098
H         -3.26402        2.35564        1.69331
C         -5.06286       -0.70920       -1.34136
H         -5.36090       -1.44228       -2.09236
H         -5.49636       -0.96865       -0.37067
H         -5.39018        0.29052       -1.63821
C         -2.88162       -1.68315        1.90097
H         -1.78604       -1.68205        1.83747
H         -3.18503       -1.67283        2.94948
H         -3.27315       -2.58318        1.41401
