59
O1C(C(O[B]1)(C)C)(C)C.[Cu]/C(=[C]/c1ccccc1)/COC.P(OC)(OC)OC
O         -0.38557       -1.65249       -1.02269
O         -0.44040       -1.48999        1.26334
C         -0.59494       -3.01534       -0.54636
C         -0.99696       -2.80412        0.96631
C         -1.67515       -3.65743       -1.41278
C          0.74284       -3.74308       -0.72945
C         -2.50846       -2.70943        1.19911
C         -0.37988       -3.80676        1.93931
B         -0.19390       -0.84314        0.07880
Cu         0.89540        0.86359        0.05011
P          2.98489        0.40013        0.02305
C         -0.82886        3.72666        0.12416
C         -1.02599        1.17630       -0.02538
C         -0.38461        2.31672        0.09056
H         -2.58837       -3.05892       -1.41272
H         -1.91210       -4.66653       -1.05645
H         -1.31891       -3.73423       -2.44539
H          1.53848       -3.24762       -0.16445
H          1.01687       -3.71767       -1.78890
H          0.68200       -4.78988       -0.41448
H         -2.68464       -2.38580        2.22928
H         -2.99482       -3.67994        1.05131
H         -2.97246       -1.97712        0.53704
H         -0.69121       -3.56067        2.95930
H          0.71150       -3.78084        1.90566
H         -0.71690       -4.82553        1.71518
H         -0.37403        4.27228       -0.72338
H         -0.44289        4.20927        1.04100
O         -2.24762        3.84532        0.07437
C         -2.41843        0.70809       -0.12540
C         -2.89617        0.07057       -1.28190
C         -3.30148        0.92446        0.94464
C         -4.22788       -0.33615       -1.36667
H         -2.20979       -0.11951       -2.09965
C         -4.62939        0.50860        0.86076
H         -2.93411        1.42700        1.83313
C         -5.09813       -0.12473       -0.29351
H         -4.58539       -0.82193       -2.27126
H         -5.30026        0.67853        1.69905
H         -6.13312       -0.45048       -0.35654
C         -2.68243        5.18408        0.11737
H         -3.77544        5.17227        0.07822
H         -2.36533        5.69258        1.04492
H         -2.30288        5.77001       -0.73804
C          3.76665        2.86365       -0.59225
H          4.28309        3.21351        0.30867
H          4.19015        3.35254       -1.47205
H          2.69659        3.09149       -0.51234
C          5.01861       -0.23827        1.62377
H          5.68004        0.41337        1.04423
H          5.25138       -0.15676        2.68662
H          5.13442       -1.27292        1.29015
C          2.93409       -1.20274       -2.05785
H          1.83950       -1.15502       -2.05155
H          3.34848       -0.47765       -2.76653
H          3.25129       -2.20978       -2.33424
O          3.45681       -0.96438       -0.73576
O          3.64374        0.17738        1.48199
O          3.97650        1.44906       -0.76318
