59
O1C(C(O[B]1)(C)C)(C)C.[Cu]/C(=[C]/COC)/c1ccccc1.P(OC)(OC)OC
O          1.85433       -1.30592       -1.21270
O          1.89302       -1.11577        1.06931
C          3.23355       -1.56182       -0.82327
C          3.09734       -1.86014        0.71562
C          3.77014       -2.71833       -1.66080
C          4.01602       -0.27638       -1.12634
C          2.82558       -3.33521        1.03027
C          4.24595       -1.34239        1.57706
B          1.19248       -0.84802       -0.09204
Cu        -0.21784        0.60913       -0.15247
P          0.53816        2.58941       -0.02133
C         -0.71705       -2.71396       -0.14344
C         -1.88731       -0.36686       -0.09686
C         -0.88842       -1.22063       -0.09801
H          3.13318       -3.60185       -1.58077
H          4.78517       -2.98657       -1.34539
H          3.80562       -2.42261       -2.71390
H          3.61878        0.56960       -0.55719
H          3.90287       -0.03939       -2.18826
H          5.08243       -0.38939       -0.90379
H          2.52441       -3.42426        2.07861
H          3.71839       -3.94937        0.87090
H          2.01676       -3.72974        0.41004
H          4.05390       -1.57975        2.62844
H          4.35367       -0.25894        1.48917
H          5.19231       -1.81321        1.28723
H         -0.17598       -3.05561        0.75733
H         -0.10398       -2.99787       -1.01517
O         -1.98898       -3.32861       -0.21224
C         -3.33950       -0.35844       -0.04902
C         -4.07470       -1.27602        0.72812
C         -4.04881        0.63268       -0.75489
C         -5.46433       -1.19654        0.79500
H         -3.54015       -2.05523        1.25903
C         -5.44052        0.69083       -0.71045
H         -3.48418        1.35042       -1.34465
C         -6.15583       -0.21865        0.07334
H         -6.01355       -1.90945        1.40579
H         -5.96758        1.45528       -1.27649
H         -7.24036       -0.16496        0.12328
C         -1.90185       -4.73552       -0.27014
H         -2.92490       -5.11768       -0.31907
H         -1.34978       -5.07543       -1.16239
H         -1.40513       -5.15387        0.62204
O         -0.47480        3.83521       -0.29671
O          1.74183        2.96594       -1.03997
O          1.06924        3.02617        1.46738
C          1.94808        2.13328        2.18029
H          2.96739        2.21127        1.78327
H          1.93718        2.45681        3.22292
H          1.61586        1.09348        2.10577
C          2.24955        4.31445       -1.12651
H          3.15617        4.25913       -1.73156
H          1.51371        4.96397       -1.60752
H          2.48738        4.70148       -0.13052
C         -1.77402        3.80324        0.32828
H         -2.39914        4.50921       -0.22141
H         -2.20615        2.79676        0.27078
H         -1.69194        4.11411        1.37497
