17
O[C@@H](C)C#CCC
O         -2.32271       -0.94944        0.65283
C         -1.71080       -0.11144       -0.34361
C         -2.17512        1.31628       -0.05318
C         -0.24540       -0.23936       -0.34053
C          0.96010       -0.37191       -0.34634
C          2.41947       -0.49613       -0.32738
C          3.10820        0.59939        0.50971
H         -1.92792       -1.82999        0.59923
H         -2.07924       -0.40819       -1.33889
H         -1.79332        2.00481       -0.81224
H         -1.81517        1.63191        0.92975
H         -3.26844        1.34781       -0.05649
H          2.68850       -1.48523        0.06614
H          2.79581       -0.46609       -1.35837
H          2.87837        1.59288        0.11309
H          4.19458        0.46326        0.49363
H          2.76978        0.56336        1.54949
