30
C#CCCCNC(=O)OC(C)(C)C
C          5.61032       -0.91272       -0.01182
C          4.79484       -0.02183       -0.09796
C          3.78813        1.03632       -0.21299
C          2.38557        0.51291       -0.58951
C          1.79471       -0.41185        0.48294
N          0.45678       -0.88378        0.15468
C         -0.63331       -0.07588        0.29373
O         -1.73821       -0.70472       -0.18202
C         -3.06299       -0.06186       -0.12879
C         -3.46097        0.19932        1.32719
C         -3.96879       -1.12215       -0.75836
C         -3.05881        1.21886       -0.96944
O         -0.59702        1.04361        0.78798
H          6.33906       -1.68683        0.06881
H          4.11868        1.76260       -0.96567
H          3.72991        1.58309        0.73798
H          1.71419        1.36821       -0.71792
H          2.43687       -0.01986       -1.54658
H          1.74002        0.12138        1.43760
H          2.43380       -1.28775        0.62676
H          0.33436       -1.75117       -0.34587
H         -4.49689        0.55291        1.36252
H         -2.81513        0.95125        1.78204
H         -3.39441       -0.72625        1.90811
H         -3.93251       -2.05035       -0.18013
H         -5.00266       -0.76411       -0.78061
H         -3.65178       -1.33878       -1.78302
H         -2.71167        1.00231       -1.98503
H         -4.07787        1.61492       -1.03270
H         -2.41196        1.97705       -0.52661
