74
CC1(C)OB([Cu][P](C2CCCCC2)(C2CCCCC2)C2CCCCC2)OC1(C)C
C         -5.41231       -0.01393       -1.75721
C         -5.08186       -0.72414       -0.43590
C         -5.93523       -1.98266       -0.29392
O         -3.68250       -1.11031       -0.50314
B         -2.90870       -0.13767        0.13402
Cu        -0.91416       -0.03870        0.08161
P          1.35473        0.11406       -0.01725
C          1.90649        1.82658       -0.50085
C          1.35831        2.86881        0.49505
C          1.95805        4.26634        0.21023
C          2.21530        4.49343       -1.29978
C          1.21862        3.68798       -2.14315
C          1.42503        2.16790       -1.93999
C          2.19348       -0.20941        1.62266
C          2.12961       -1.70121        2.00858
C          2.43626       -1.88831        3.51292
C          3.48288       -0.86824        4.02906
C          4.41368       -0.41822        2.89500
C          3.62712        0.36259        1.81711
C          2.06340       -1.00239       -1.33745
C          3.60330       -1.12538       -1.42849
C          4.02840       -2.32262       -2.32140
C          2.96743       -2.63695       -3.38446
C          1.63986       -3.08096       -2.72110
C          1.41727       -2.40435       -1.34487
O         -3.74346        0.75666        0.80762
C         -5.10034        0.23635        0.80332
C         -5.30002       -0.49947        2.13670
C         -6.07724        1.40599        0.70296
H         -6.47161        0.25808       -1.81796
H         -4.80766        0.88973       -1.87499
H         -5.17726       -0.68876       -2.58555
H         -6.99093       -1.72230       -0.15353
H         -5.60856       -2.59405        0.54941
H         -5.84935       -2.58817       -1.20155
H          3.00269        1.86027       -0.47119
H          0.26528        2.89119        0.40173
H          1.56646        2.58450        1.53181
H          2.89691        4.38584        0.76515
H          1.27090        5.03060        0.59273
H          3.23491        4.17630       -1.55850
H          2.15618        5.56120       -1.53858
H          1.31439        3.93378       -3.20675
H          0.19722        3.96527       -1.85282
H          2.16320        1.79657       -2.66092
H          0.48237        1.64662       -2.15277
H          1.52436        0.31597        2.31785
H          1.14548       -2.12072        1.77158
H          2.85699       -2.25895        1.40768
H          2.79598       -2.91137        3.67669
H          1.50941       -1.78827        4.09003
H          4.05662       -1.29955        4.85679
H          2.97465        0.01632        4.43637
H          5.22902        0.20516        3.27976
H          4.88731       -1.30170        2.44576
H          4.19341        0.35749        0.88173
H          3.54719        1.41421        2.11632
H          1.70426       -0.49973       -2.24591
H          4.03375       -1.26426       -0.43292
H          4.01922       -0.18985       -1.82292
H          4.17076       -3.21302       -1.69475
H          4.99951       -2.11501       -2.78510
H          2.80104       -1.74173       -3.99877
H          3.32580       -3.41289       -4.07019
H          1.63521       -4.16961       -2.58895
H          0.80085       -2.84466       -3.38625
H          1.86496       -3.01262       -0.55113
H          0.34633       -2.34110       -1.12240
H         -4.60593       -1.34000        2.22477
H         -6.32416       -0.87258        2.24501
H         -5.09390        0.19682        2.95491
H         -5.84998        2.04453       -0.15285
H         -7.10801        1.04426        0.60987
H         -6.00944        2.01881        1.60721
