13
C#Cc1ccccn1
C          3.20442       -0.00460        0.00000
C          1.99360       -0.02518       -0.00000
C          0.55832       -0.01704       -0.00000
C         -0.13633        1.20698       -0.00000
C         -1.52905        1.18596        0.00000
C         -2.18280       -0.04709        0.00000
C         -1.40417       -1.20931        0.00000
N         -0.06772       -1.21267       -0.00000
H          4.27084       -0.00314        0.00000
H          0.41603        2.14045       -0.00000
H         -2.09202        2.11467        0.00000
H         -3.26608       -0.11325        0.00000
H         -1.87865       -2.18838        0.00000
