14
C#Cc1ccc(F)cc1
C          0.00000       -3.69556        0.00000
C         -0.00000       -2.48330        0.00000
C         -0.00000       -1.05379        0.00000
C         -0.00000       -0.33838       -1.21425
C         -0.00000        1.05529       -1.21926
C         -0.00000        1.72362       -0.00000
F         -0.00000        3.08168       -0.00000
C         -0.00000        1.05529        1.21926
C         -0.00000       -0.33838        1.21425
H          0.00001       -4.76184        0.00000
H         -0.00000       -0.88288       -2.15254
H         -0.00000        1.62190       -2.14378
H         -0.00000        1.62190        2.14378
H         -0.00000       -0.88288        2.15254
