14
C#Cc1ccccc1
C          3.23715        0.00004       -0.00000
C          2.02477       -0.00001       -0.00000
C          0.59433       -0.00001       -0.00000
C         -0.11934        1.21466       -0.00000
C         -1.51376        1.21000        0.00000
C         -2.21523       -0.00001        0.00000
C         -1.51376       -1.21002        0.00000
C         -0.11934       -1.21468        0.00000
H          4.30334        0.00021       -0.00000
H          0.42825        2.15163       -0.00000
H         -2.05380        2.15229       -0.00000
H         -3.30122       -0.00001        0.00000
H         -2.05380       -2.15231        0.00000
H          0.42825       -2.15164        0.00000
