22
C#CCCCCCC
C         -2.99062        1.70495       -0.17294
C         -2.68203        0.55680        0.05623
C         -2.29161       -0.83053        0.31631
C         -0.93392       -1.21850       -0.31168
C          0.25321       -0.43495        0.25824
C          1.59078       -0.83652       -0.37751
C          2.81626       -0.12851        0.22348
C          2.83675        1.38946       -0.00085
H         -3.26838        2.71507       -0.37057
H         -3.07612       -1.49634       -0.06563
H         -2.24966       -0.99249        1.40220
H         -0.78007       -2.29311       -0.14658
H         -0.98801       -1.06952       -1.39764
H          0.07245        0.63633        0.11338
H          0.30531       -0.59679        1.34541
H          1.72180       -1.92302       -0.27439
H          1.55126       -0.63388       -1.45802
H          3.72400       -0.56636       -0.21205
H          2.86126       -0.34026        1.30117
H          2.77346        1.62751       -1.06984
H          1.99903        1.88657        0.49922
H          3.76078        1.83311        0.38572
