17
CC#Cc1ccc(F)cc1
C          4.54820       -0.00063        0.00018
C          3.08793        0.00096       -0.00033
C          1.87411        0.00042       -0.00012
C          0.44421        0.00028        0.00002
C         -0.27431       -1.21276        0.00000
C         -1.66844       -1.21851        0.00002
C         -2.33765       -0.00019        0.00000
F         -3.69769       -0.00038        0.00003
C         -1.66882        1.21837        0.00002
C         -0.27472        1.21308        0.00000
H          4.94205        1.01509       -0.11677
H          4.94244       -0.61032       -0.82096
H          4.94270       -0.40759        0.93850
H          0.26963       -2.15154        0.00003
H         -2.23441       -2.14357        0.00003
H         -2.23510        2.14324        0.00004
H          0.26885        2.15206        0.00003
