23
CC#Cc1c(C)cccc1C
C          4.03813       -0.00068        0.00109
C          2.57764       -0.00104       -0.00036
C          1.36306       -0.00129        0.00035
C         -0.06748       -0.00043        0.00008
C         -0.76731        1.23178       -0.00010
C         -0.01049        2.53665       -0.00146
C         -2.16533        1.21024        0.00067
C         -2.86429        0.00177        0.00116
C         -2.16720       -1.20778        0.00067
C         -0.76922       -1.23155       -0.00010
C         -0.01454       -2.53767       -0.00145
H          4.43280        0.92182       -0.43977
H          4.43378       -0.84442       -0.57582
H          4.43316       -0.07917        1.02086
H         -0.69423        3.39003       -0.00088
H          0.64119        2.61547        0.87626
H          0.63859        2.61480       -0.88118
H         -2.71038        2.15051        0.00064
H         -3.95064        0.00261        0.00172
H         -2.71373       -2.14719        0.00063
H          0.63437       -2.61697       -0.88118
H         -0.69973       -3.38989       -0.00085
H          0.63701       -2.61761        0.87625
