23
CC(C)C#Cc1ccccc1
C         -3.68854       -1.25534        0.34964
C         -3.09474       -0.02854       -0.37462
C         -3.69095        1.28595        0.17154
C         -1.62987       -0.02079       -0.28470
C         -0.41867       -0.01352       -0.19128
C          1.00784       -0.00521       -0.08668
C          1.73355       -1.21352       -0.07693
C          3.12426       -1.20135        0.02578
C          3.81496        0.01120        0.12034
C          3.10380        1.21556        0.11146
C          1.71304        1.21147        0.00901
H         -3.45458       -1.21824        1.41887
H         -4.77796       -1.26933        0.23488
H         -3.28475       -2.18766       -0.05592
H         -3.36216       -0.10360       -1.43924
H         -3.45655        1.39895        1.23537
H         -3.28939        2.15334       -0.36057
H         -4.78042        1.28153        0.05684
H          1.19601       -2.15362       -0.15033
H          3.67023       -2.14041        0.03200
H          4.89804        0.01754        0.20021
H          3.63382        2.16091        0.18450
H          1.15966        2.14520        0.00205
