29
C#CCO[Si](C)(C(C)(C)C)C
C         -4.38989       -1.14312        0.00204
C         -3.45571       -0.37543       -0.00106
C         -2.34519        0.57983       -0.00474
O         -1.10079       -0.10251       -0.00325
Si         0.39709        0.67410        0.00105
C          0.54694        1.75830       -1.53596
C          1.65129       -0.75688       -0.00062
C          1.44151       -1.62339       -1.26148
C          1.43629       -1.63070        1.25428
C          3.08986       -0.19592        0.00400
C          0.54216        1.75041        1.54405
H         -5.20620       -1.82921        0.00463
H         -2.43635        1.23052        0.87915
H         -2.43699        1.22458       -0.89289
H         -0.20097        2.55988       -1.53201
H          1.53327        2.23389       -1.58534
H          0.40780        1.17236       -2.45068
H          1.61841       -1.05543       -2.18256
H          2.14414       -2.46874       -1.25945
H          0.42572       -2.03005       -1.30308
H          2.13884       -2.47611        1.25018
H          0.42027       -2.03733        1.28937
H          1.60947       -1.06815        2.17938
H          3.29544        0.41867       -0.88073
H          3.29206        0.41264        0.89364
H          3.81588       -1.02085        0.00257
H          1.52807        2.22632        1.59848
H         -0.20620        2.55157        1.54234
H          0.40093        1.15961        2.45531
