41
O1C(C(OB1[Cu][P](C)(CC)CC)(C)C)(C)C
O         -2.03285        1.11205        0.28755
O         -2.02056       -1.10639       -0.25548
C         -3.40381        0.78355       -0.05763
C         -3.40412       -0.78065        0.03821
C         -4.34028        1.49474        0.91660
C         -3.63753        1.30053       -1.48447
C         -3.68991       -1.29835        1.45529
C         -4.30212       -1.49361       -0.97032
B         -1.22925        0.00356        0.03148
Cu         0.76496        0.00266        0.06738
P          3.04250       -0.00401        0.05112
H         -4.08734        1.26482        1.95397
H         -5.38313        1.20670        0.73651
H         -4.25734        2.57844        0.78268
H         -2.97038        0.79808       -2.19152
H         -3.41516        2.37189       -1.51216
H         -4.67354        1.15059       -1.80862
H         -3.46644       -2.36924        1.49111
H         -4.73759       -1.15068        1.74059
H         -3.05064       -0.79473        2.18683
H         -4.22212       -2.57715       -0.83335
H         -4.01113       -1.26312       -1.99755
H         -5.35154       -1.20766       -0.82927
C          3.87462       -0.06943        1.70165
H          3.56797        0.79346        2.29997
H          3.56216       -0.97297        2.23326
C          3.81126       -1.42677       -0.86002
H          4.90475       -1.35978       -0.78359
H          3.54997       -1.29445       -1.91725
C          3.82528        1.47556       -0.75113
H          4.91811        1.39060       -0.68339
H          3.56030        1.42720       -1.81461
C          3.33300        2.79855       -0.14662
H          3.76785        3.65167       -0.67886
H          2.24167        2.87538       -0.21134
H          3.61348        2.88941        0.90882
C          3.30187       -2.78620       -0.35942
H          2.21017       -2.84584       -0.43494
H          3.73049       -3.60136       -0.95270
H          3.57586       -2.95959        0.68740
H          4.96631       -0.06928        1.60034
