47
O1C(C(O[B]1)(C)C)(C)C.[Cu]/C(=[C]/COC)/c1ccccc1.P
O         -2.08545       -0.01149       -1.08165
O         -2.18952       -0.84228        1.04312
C         -3.46266        0.17375       -0.65252
C         -3.34607        0.02868        0.90397
C         -3.94402        1.53691       -1.14291
C         -4.28376       -0.94553       -1.30570
C         -2.99262        1.34531        1.61016
C         -4.54209       -0.63033        1.58572
B         -1.39551       -0.70124       -0.08929
Cu         0.52218       -1.31896       -0.15558
P          0.28783       -3.56396       -0.06346
C          3.77290       -1.40906       -0.00947
C          1.71549        0.25319       -0.13911
C          2.44583       -0.77517       -0.08259
H         -3.27724        2.33764       -0.81448
H         -4.95452        1.74961       -0.77419
H         -3.96965        1.54720       -2.23745
H         -3.94335       -1.92681       -0.96069
H         -4.14360       -0.89983       -2.39014
H         -5.35285       -0.84738       -1.08739
H         -2.73118        1.12718        2.65023
H         -3.83244        2.04891        1.60242
H         -2.12657        1.82268        1.14121
H         -4.35893       -0.70093        2.66285
H         -4.71330       -1.64043        1.20674
H         -5.45244       -0.03868        1.43207
H          3.94625       -2.02803       -0.90786
H          3.81924       -2.09224        0.85741
O          4.77090       -0.40231        0.10029
C          1.51629        1.68769       -0.11853
C          0.31755        2.29329       -0.52545
C          2.58737        2.49136        0.31951
C          0.19012        3.68139       -0.48365
H         -0.49716        1.67011       -0.87622
C          2.44783        3.87666        0.36037
H          3.51606        2.01077        0.61368
C          1.24865        4.47655       -0.03716
H         -0.74098        4.14294       -0.80298
H          3.27716        4.49042        0.70251
H          1.14274        5.55769       -0.00211
C          6.07343       -0.94350        0.18751
H          6.76546       -0.10125        0.26696
H          6.19130       -1.58821        1.07470
H          6.33199       -1.53508       -0.70655
H         -0.49854       -3.95689        1.04122
H         -0.53415       -4.09344       -1.08289
H          1.22074       -4.63893       -0.01386
