26
O1C(C(OB1[Cu][PH3])(C)C)(C)C
O         -0.76456        1.06628        0.40925
O         -0.76575       -1.06710       -0.40966
C         -2.14492        0.78244        0.05233
C         -2.14565       -0.78203       -0.05193
C         -3.05873        1.36244        1.12908
C         -2.40464        1.47794       -1.29119
C         -2.40518       -1.47730        1.29175
C         -3.06058       -1.36122       -1.12814
B          0.02309       -0.00077       -0.00045
Cu         2.01347       -0.00072       -0.00111
P          4.30344        0.00038        0.00062
H         -2.78566        1.00113        2.12294
H         -4.10542        1.09956        0.93432
H         -2.97584        2.45424        1.13341
H         -1.75322        1.07087       -2.07055
H         -2.18081        2.54402       -1.18562
H         -3.44709        1.37013       -1.61074
H         -2.18237       -2.54358        1.18607
H         -3.44735       -1.36854        1.61192
H         -1.75293       -1.07078        2.07071
H         -2.97866       -2.45309       -1.13254
H         -2.78776       -1.00014       -2.12216
H         -4.10693       -1.09741       -0.93278
H          5.00274        1.10898       -0.53201
H          4.99672       -0.08744        1.23078
H          5.00756       -1.01615       -0.68678
