47
O1C(C(O[B]1)(C)C)(C)C.[Cu]/C(=[C]/c1ccccc1)/COC.P
O          1.62749        0.01917       -1.10253
O          1.51114        0.12223        1.18415
C          2.86248       -0.59272       -0.63017
C          2.57499       -0.83640        0.90395
C          3.10550       -1.86018       -1.44605
C          3.97406        0.43095       -0.89204
C          2.01552       -2.22814        1.21650
C          3.74659       -0.52698        1.83394
B          0.94158        0.49822       -0.00951
Cu        -0.36142        2.06803       -0.07346
P          0.72677        3.93141       -0.01957
C         -3.59786        1.24893        0.03716
C         -1.21842        0.31055       -0.08974
C         -2.11975        1.26205        0.00083
H          2.24652       -2.53216       -1.39567
H          3.99386       -2.39160       -1.08570
H          3.26799       -1.59408       -2.49564
H          3.78994        1.35699       -0.33812
H          3.98679        0.67295       -1.95925
H          4.95895        0.04382       -0.61034
H          1.67660       -2.24487        2.25670
H          2.78132       -3.00093        1.08775
H          1.16056       -2.47058        0.58443
H          3.44219       -0.69831        2.87126
H          4.06994        0.51262        1.74579
H          4.59935       -1.18022        1.61583
H         -3.98612        1.81158       -0.83138
H         -3.94631        1.79308        0.93417
C         -1.19337       -1.16201       -0.13986
C         -0.75229       -1.85309       -1.27981
C         -1.65554       -1.89679        0.96390
C         -0.77663       -3.24740       -1.31450
H         -0.37362       -1.28788       -2.12407
C         -1.67149       -3.29030        0.92934
H         -2.00781       -1.36105        1.83896
C         -1.22998       -3.97163       -0.20815
H         -0.43875       -3.76908       -2.20652
H         -2.02822       -3.84598        1.79282
H         -1.24002       -5.05816       -0.23293
C         -5.53309       -0.09767        0.07553
H         -5.84128       -1.14718        0.07591
H         -5.93049        0.38991        0.98321
H         -5.97893        0.40303       -0.80162
O         -4.12551       -0.07483        0.03732
H          1.53096        4.13364        1.12413
H          1.71542        4.14396       -1.00733
H          0.13359        5.21789       -0.06768
