86
O1C(C(O[B]1)(C)C)(C)C.[Cu]/C(=[C]/COC)/c1ccccc1.P(c1ccc(cc1)C)(c1ccc(cc1)C)c1ccc(cc1)C
O          2.75708       -1.15642        1.02759
O          2.52079       -1.31244       -1.23686
C          3.48346       -2.35307        0.63530
C          3.67156       -2.13465       -0.90533
C          4.77543       -2.42715        1.44339
C          2.57531       -3.54511        0.96822
C          4.91951       -1.31434       -1.25682
C          3.61712       -3.40441       -1.75158
B          2.07660       -0.66288       -0.08746
Cu         0.60834        0.70444       -0.06826
P         -1.39082       -0.37004       -0.00721
C         -0.96073        3.54414       -0.18937
C          1.46001        2.47396       -0.01929
C          0.21166        2.66059       -0.10777
H          5.36300       -1.51207        1.33990
H          5.38918       -3.27713        1.12197
H          4.53952       -2.55766        2.50471
H          1.64103       -3.49293        0.40045
H          2.31958       -3.51062        2.03187
H          3.06453       -4.50250        0.75807
H          4.87412       -1.04087       -2.31552
H          5.84123       -1.88025       -1.08177
H          4.95588       -0.38766       -0.67656
H          3.74324       -3.14702       -2.80846
H          2.65785       -3.91590       -1.64191
H          4.41943       -4.09715       -1.47095
H         -1.66071        3.32736        0.63402
H         -1.51658        3.34390       -1.12085
C         -1.54640       -1.44638        1.47656
C         -2.75378       -2.08150        1.81268
C         -0.42223       -1.66316        2.28462
C         -2.82839       -2.91291        2.92562
H         -3.64186       -1.91682        1.20941
C         -0.50757       -2.50048        3.39918
H          0.52512       -1.19471        2.03749
C         -1.70460       -3.14042        3.73652
H         -3.77231       -3.39398        3.17315
H          0.37619       -2.65494        4.01407
C         -2.88389        0.70240        0.06415
C         -3.42387        1.24199       -1.11488
C         -3.37665        1.16642        1.29349
C         -4.42118        2.21344       -1.06149
H         -3.05607        0.90744       -2.08102
C         -4.37296        2.14158        1.33797
H         -2.97381        0.77290        2.22222
C         -4.91107        2.68540        0.16439
H         -4.82100        2.61847       -1.98865
H         -4.73458        2.48933        2.30316
C         -1.70795       -1.49523       -1.42567
C         -0.61663       -1.93763       -2.18752
C         -2.99215       -1.96545       -1.74678
C         -0.81112       -2.83782       -3.23640
H          0.38596       -1.58828       -1.96286
C         -3.17424       -2.85998       -2.79795
H         -3.85656       -1.61664       -1.18929
C         -2.08631       -3.31685       -3.55745
H          0.04824       -3.16688       -3.81644
H         -4.17694       -3.20854       -3.03628
O         -0.54616        4.90719       -0.14535
C          2.82026        2.96904        0.03954
C          3.88977        2.17843        0.48769
C          3.06297        4.30030       -0.35152
C          5.17983        2.70522        0.53231
H          3.69148        1.16103        0.80712
C          4.35607        4.81699       -0.30890
H          2.22406        4.91051       -0.67405
C          5.41965        4.02151        0.12908
H          6.00076        2.08506        0.88386
H          4.53490        5.84430       -0.61639
H          6.42755        4.42733        0.15965
C         -1.64270        5.79030       -0.24697
H         -1.24537        6.80741       -0.19024
H         -2.18100        5.66896       -1.20274
H         -2.36650        5.64189        0.57232
C         -6.00309        3.72734        0.21510
H         -6.99647        3.26252        0.15610
H         -5.96684        4.30173        1.14689
H         -5.92448        4.43082       -0.62112
C         -1.78812       -4.07100        4.92301
H         -2.74320       -3.96470        5.44986
H         -1.70882       -5.11924        4.60522
H         -0.98140       -3.88316        5.63897
C         -2.28840       -4.31383       -4.67374
H         -1.48610       -4.25331       -5.41651
H         -2.29798       -5.34094       -4.28477
H         -3.24240       -4.15357       -5.18827
