90
O1C(C(OB1/C(=C(\[Cu][C]1N(C=CN1c1c(cc(cc1C)C)C)c1c(cc(cc1C)C)C)/COC)/c1ccccc1)(C)C)(C)C
O          0.31079        2.52527       -1.52039
O         -0.57098        2.66722        0.58961
C         -1.09738        2.81586       -1.69760
C         -1.50758        3.35001       -0.27699
C         -1.25370        3.81684       -2.83819
C         -1.78092        1.48945       -2.05485
C         -1.25248        4.85232       -0.10513
C         -2.92157        2.98758        0.16218
B          0.52909        2.30749       -0.16808
Cu         0.04563       -0.56681        0.54640
C          2.79257       -0.43936        1.40131
C          1.82987        1.69951        0.43208
C          1.66338        0.41454        0.85414
H         -0.64477        4.70697       -2.67257
H         -2.30032        4.12095       -2.94710
H         -0.93080        3.35777       -3.77714
H         -1.65971        0.76173       -1.24699
H         -1.30951        1.07987       -2.95286
H         -2.84930        1.62239       -2.24774
H         -1.35755        5.10738        0.95270
H         -1.96150        5.45362       -0.68252
H         -0.23595        5.11076       -0.41465
H         -3.11451        3.39878        1.15749
H         -3.05115        1.90779        0.21679
H         -3.66542        3.39848       -0.52936
H          2.52787       -1.50751        1.35014
H          2.92759       -0.21011        2.47739
C         -1.20208       -1.93274        0.01777
C         -1.70395       -4.01095       -0.77427
C         -2.87515       -3.40436       -0.45420
H         -1.49300       -4.98866       -1.17658
H         -3.89507       -3.74731       -0.51400
N         -2.55086       -2.13424        0.02078
N         -0.69849       -3.09887       -0.48159
O          4.02472       -0.25295        0.70306
C          5.11732       -0.82439        1.37749
H          5.28819       -0.35011        2.35937
H          4.98564       -1.90824        1.54196
H          6.00690       -0.66892        0.75959
C          3.05484        2.54549        0.45870
C          3.31425        3.44331       -0.59403
C          3.94440        2.54887        1.54927
C          4.43175        4.27949       -0.57470
H          2.63560        3.46925       -1.44200
C          5.05323        3.39039        1.57635
H          3.75326        1.89004        2.38933
C          5.30937        4.25814        0.51003
H          4.61442        4.95207       -1.40940
H          5.72072        3.37281        2.43468
H          6.17719        4.91199        0.52974
C         -3.51977       -1.14864        0.41688
C         -3.58706       -0.74829        1.76128
C         -4.37745       -0.62136       -0.56365
C         -4.55558        0.19901        2.10806
C         -5.33391        0.31444       -0.16119
C         -5.43610        0.73975        1.16692
H         -4.61829        0.52449        3.14339
H         -6.00046        0.73702       -0.90909
C          0.71792       -3.30143       -0.65969
C          1.42053       -4.02019        0.31625
C          1.35717       -2.68879       -1.74999
C          2.80691       -4.13367        0.17041
C          2.74243       -2.82437       -1.84590
C          3.48397       -3.53477       -0.89585
H          3.37137       -4.67749        0.92367
H          3.26038       -2.33619       -2.66733
C          0.59362       -1.83529       -2.73120
H         -0.37646       -2.27190       -2.98847
H          0.40431       -0.84813       -2.29159
H          1.16594       -1.69045       -3.65065
C          0.70910       -4.58149        1.52265
H          0.22473       -3.77576        2.08711
H         -0.07594       -5.29334        1.24572
H          1.40947       -5.09091        2.18853
C          4.98595       -3.61150       -1.01678
H          5.42060       -2.60888       -0.94846
H          5.42564       -4.22534       -0.22590
H          5.28657       -4.03456       -1.98185
C         -4.26370       -1.02730       -2.01433
H         -3.21832       -1.06587       -2.33359
H         -4.69546       -2.01738       -2.19935
H         -4.78858       -0.31415       -2.65446
C         -2.64320       -1.29558        2.80301
H         -2.48664       -2.37188        2.68212
H         -1.65905       -0.81939        2.71783
H         -3.02679       -1.11006        3.80933
C         -6.43019        1.80455        1.56176
H         -6.74611        1.69387        2.60326
H         -5.98372        2.80132        1.45899
H         -7.32210        1.77814        0.92865
