56
O1C(C(OB1[Cu][P](c1ccc(cc1)Cl)(c1ccc(cc1)Cl)c1ccc(cc1)Cl)(C)C)(C)C
O         -4.26434       -1.18872       -0.17856
O         -4.26390        1.04337        0.31033
C         -5.64423       -0.85222        0.12891
C         -5.64291        0.70969       -0.00378
C         -6.55846       -1.58699       -0.84856
C         -5.90812       -1.33588        1.56168
C         -5.89989        1.19438       -1.43754
C         -6.55936        1.44551        0.97058
B         -3.47155       -0.07311        0.06615
Cu        -1.48074       -0.06393        0.05855
P          0.80025       -0.00874        0.01332
H         -6.28394       -1.37981       -1.88519
H         -7.60505       -1.29656       -0.69695
H         -6.47720       -2.66713       -0.68864
H         -5.25636       -0.81730        2.27146
H         -5.68783       -2.40649        1.61906
H         -6.95073       -1.17726        1.85909
H         -5.67760        2.26466       -1.49347
H         -6.94151        1.03810       -1.73962
H         -5.24582        0.67550       -2.14498
H         -6.47630        2.52548        0.81028
H         -6.28869        1.23851        2.00822
H         -7.60579        1.15633        0.81538
C          1.61991       -1.33104        0.98492
C          2.85406       -1.89857        0.63603
C          0.96189       -1.78273        2.14007
C          3.43170       -2.88683        1.43255
H          3.36728       -1.57867       -0.26609
C          1.53144       -2.76585        2.94688
H         -0.00848       -1.36885        2.40439
C          2.76576       -3.30815        2.58483
H          4.38490       -3.32944        1.16409
H          1.02327       -3.11645        3.83854
C          1.49539       -0.17814       -1.67579
C          2.67987        0.44464       -2.09511
C          0.78926       -0.98556       -2.58223
C          3.16263        0.25370       -3.38940
H          3.22821        1.09041       -1.41569
C          1.26445       -1.18802       -3.87651
H         -0.14516       -1.45032       -2.27588
C          2.45145       -0.56606       -4.26740
H          4.07729        0.73572       -3.71747
H          0.71930       -1.81060       -4.57756
C          1.51039        1.55377        0.66010
C          0.73795        2.71785        0.51930
C          2.76859        1.63849        1.27429
C          1.21841        3.94946        0.96051
H         -0.25193        2.65759        0.07259
C          3.25816        2.86435        1.72352
H          3.37012        0.74505        1.41400
C          2.47874        4.01070        1.55733
H          0.62173        4.84882        0.85403
H          4.22989        2.93325        2.20057
Cl         3.48865       -4.55096        3.58942
Cl         3.05578       -0.80918       -5.89595
Cl         3.09084        5.55450        2.12160
