86
O1C(C(OB1[Cu]C(=C=C1C=C[CH]C=C1)COC)(C)C)(C)C.P(C1CCCC1)(C1CCCC1)C1CCCC1
O          2.93574       -0.90554        0.63007
O          3.29301        0.55258       -1.08857
C          4.25026       -1.23294        0.10334
C          4.60508        0.05352       -0.71770
C          5.18378       -1.53833        1.27181
C          4.08282       -2.48063       -0.77578
C          5.26922        1.14657        0.13209
C          5.41702       -0.18791       -1.98765
B          2.34863        0.06820       -0.18310
Cu         0.45239        0.73676       -0.02307
P         -1.20150       -0.82171       -0.02683
C          2.04455        3.36333        0.18296
C         -0.50675        2.58975        0.24916
C          0.74187        2.67291        0.18327
H          5.19986       -0.72013        1.99505
H          6.20666       -1.71622        0.91860
H          4.84061       -2.43915        1.79135
H          3.39769       -2.28016       -1.60553
H          3.65631       -3.28800       -0.17261
H          5.04008       -2.82299       -1.18383
H          5.29485        2.07614       -0.44548
H          6.29536        0.88192        0.41011
H          4.69395        1.33089        1.04466
H          5.59822        0.76537       -2.49499
H          4.88581       -0.84139       -2.68317
H          6.38810       -0.63954       -1.75142
H          2.61322        3.04805       -0.70554
H          2.62726        3.02524        1.05818
O          1.85694        4.76944        0.21192
C         -1.91662        2.82804        0.30245
C         -2.61302        3.25646       -0.84728
C         -2.65348        2.55890        1.47576
C         -4.00101        3.37870       -0.82816
H         -2.05232        3.47019       -1.75199
C         -4.04033        2.68733        1.48580
H         -2.12224        2.23460        2.36597
C         -4.72416        3.08727        0.33277
H         -4.52131        3.70226       -1.72604
H         -4.59162        2.47051        2.39723
H         -5.80661        3.17775        0.34135
C          3.08657        5.46164        0.18032
H          2.85580        6.53022        0.19819
H          3.71755        5.21810        1.05232
H          3.66229        5.23502       -0.73314
C         -2.75743       -0.34215       -0.91331
C         -2.51761       -0.02406       -2.40738
C         -4.02115       -1.25890       -0.87574
H         -3.02310        0.60306       -0.43103
C         -3.94251        0.01071       -2.97707
H         -1.94183       -0.82243       -2.89569
H         -1.96475        0.91161       -2.53947
C         -4.61397       -1.20412       -2.31013
H         -4.72895       -0.86879       -0.13633
H         -3.79802       -2.28585       -0.58294
H         -4.43486        0.93902       -2.65783
H         -3.97492       -0.02765       -4.07151
H         -5.70753       -1.14433       -2.31260
H         -4.34088       -2.11478       -2.85916
C         -0.58130       -2.40503       -0.78872
C          0.43093       -3.17793        0.08451
C         -1.52718       -3.52259       -1.27292
H         -0.02859       -2.03176       -1.66465
C          0.70727       -4.45697       -0.73807
H         -0.03472       -3.44370        1.04119
H          1.32794       -2.59647        0.30496
C         -0.55992       -4.68168       -1.61985
H         -2.15051       -3.22249       -2.12119
H         -2.20083       -3.82782       -0.46511
H          1.58959       -4.30833       -1.37064
H          0.92175       -5.31509       -0.09237
H         -0.29592       -4.64412       -2.68283
H         -1.02397       -5.65795       -1.44450
C         -1.73487       -1.11084        1.73010
C         -2.57501       -2.35386        2.11039
C         -0.52816       -1.09584        2.73099
H         -2.35000       -0.22307        1.92785
C         -2.34052       -2.47927        3.62462
H         -2.19955       -3.25373        1.61163
H         -3.62901       -2.24334        1.83843
C         -0.83265       -2.20629        3.76735
H         -0.46127       -0.11012        3.20469
H          0.43197       -1.25708        2.23259
H         -2.91704       -1.70772        4.15364
H         -2.64430       -3.45200        4.02772
H         -0.54207       -1.92532        4.78496
H         -0.27403       -3.11635        3.51301
