76
O1C(C(O[B]1=C([C](COC)[Cu][P](c1ccccc1)(c1ccncc1)c1ccccc1)c1ccccc1)(C)C)(C)C
O          3.09655       -2.01173        0.08110
O          0.92185       -1.35635       -0.20772
C          2.28789       -3.19911        0.25364
C          0.95273       -2.79130       -0.45800
C          3.01865       -4.38391       -0.37102
C          2.11820       -3.41032        1.76412
C          1.00649       -2.97390       -1.98009
C         -0.30695       -3.44236        0.10299
B          2.25233       -0.93404       -0.08511
C          2.14401        2.97562       -0.54367
C          2.72187        0.53922       -0.15554
C          1.78763        1.51346       -0.38818
Cu        -0.07470        1.05001       -0.37524
P         -2.20321        0.50657       -0.04469
H          3.29447       -4.17908       -1.40781
H          2.39405       -5.28428       -0.34228
H          3.93766       -4.58544        0.18826
H          1.57647       -2.57265        2.21577
H          3.10833       -3.45947        2.22647
H          1.57990       -4.33769        1.98638
H          0.13880       -2.47891       -2.42421
H          0.98217       -4.03279       -2.25836
H          1.91213       -2.52202       -2.39630
H         -1.18542       -3.09715       -0.44877
H         -0.45608       -3.20609        1.15809
H         -0.24491       -4.53165       -0.00249
H          2.11903        3.44438        0.46136
H          1.36721        3.48986       -1.13485
C         -3.45435        1.83294       -0.22945
C         -3.03933        3.14639        0.04224
C         -4.78450        1.59274       -0.60468
C         -3.94683        4.20226       -0.04277
H         -2.00224        3.33424        0.31155
C         -5.68811        2.65298       -0.69438
H         -5.11126        0.58308       -0.83625
C         -5.27201        3.95612       -0.41054
H         -3.61749        5.21570        0.16856
H         -6.71629        2.46107       -0.98884
H         -5.97744        4.77927       -0.48364
C         -2.43158       -0.10298        1.67943
C         -3.61778        0.03878        2.40807
C         -1.35121       -0.74697        2.29860
C         -3.67351       -0.48552        3.70231
H         -4.47854        0.55133        1.98926
C         -1.51898       -1.23471        3.59570
H         -0.40543       -0.86435        1.77749
H         -4.58568       -0.39011        4.28938
H         -0.69578       -1.74099        4.09727
C         -2.79788       -0.87894       -1.08870
C         -2.25302       -0.98700       -2.37773
C         -3.73360       -1.82936       -0.65433
C         -2.64864       -2.02247       -3.22493
H         -1.50181       -0.27124       -2.70327
C         -4.12201       -2.86842       -1.50202
H         -4.14384       -1.77133        0.34953
C         -3.58187       -2.96549       -2.78680
H         -2.21728       -2.10082       -4.21888
H         -4.84144       -3.60535       -1.15585
H         -3.88143       -3.77874       -3.44199
O          3.40477        3.18791       -1.16065
C          4.18287        0.77895        0.07705
C          5.16168        0.08994       -0.65425
C          4.61353        1.65721        1.08509
C          6.52063        0.29889       -0.41481
H          4.84920       -0.61452       -1.41959
C          5.96893        1.86409        1.33430
H          3.86848        2.18583        1.67450
C          6.93220        1.18844        0.57956
H          7.26021       -0.23799       -1.00464
H          6.27533        2.55185        2.11944
H          7.99061        1.34867        0.76980
C          3.88368        4.50068       -1.00812
H          3.18748        5.24954       -1.42620
H          4.06079        4.74870        0.05280
H          4.83462        4.56433       -1.54487
N         -2.65431       -1.11691        4.29729
