76
O1C(C(OB1/C(=C(\[Cu][P](c1ccncc1)(c1ccccc1)c1ccccc1)/c1ccccc1)/COC)(C)C)(C)C
O         -3.03808       -2.44628       -0.59123
O         -1.08214       -1.64151        0.29240
C         -2.10590       -3.55308       -0.60478
C         -1.02807       -3.08927        0.43616
C         -2.85521       -4.83045       -0.23727
C         -1.54783       -3.64992       -2.03159
C         -1.42483       -3.40556        1.88448
C          0.39000       -3.57660        0.15729
B         -2.35404       -1.31762       -0.18306
C         -4.44872        0.17464       -0.45608
C         -2.13764        1.20673       -0.17940
C         -2.94685        0.10607       -0.26562
Cu        -0.23773        0.94259       -0.06100
P          1.92404        0.45236        0.01878
H         -3.39978       -4.71585        0.70250
H         -2.16174       -5.67436       -0.14452
H         -3.58185       -5.06891       -1.02055
H         -0.98377       -2.74852       -2.29025
H         -2.38384       -3.74502       -2.73111
H         -0.88955       -4.51700       -2.15116
H         -0.73594       -2.89562        2.56476
H         -1.37414       -4.48012        2.08873
H         -2.43845       -3.05303        2.09781
H          1.07396       -3.19138        0.91965
H          0.75116       -3.24251       -0.81558
H          0.42657       -4.67184        0.18930
H         -4.78723       -0.65405       -1.09872
H         -4.75684        1.11987       -0.92883
C          3.09603        1.82173       -0.34237
C          2.76142        3.10789        0.10169
C          4.30348        1.65949       -1.03093
C          3.64976        4.15558       -0.14568
H          1.82323        3.29108        0.61958
C          5.11595        2.77909       -1.22832
H          4.60630        0.69019       -1.41478
H          3.41235        5.16336        0.19018
H          6.06016        2.67920       -1.76143
C          2.45661       -0.17791        1.65650
C          3.76816       -0.06437        2.14028
C          1.47928       -0.81668        2.43824
C          4.10160       -0.60062        3.38543
H          4.52484        0.44867        1.55326
C          1.82046       -1.35410        3.67972
H          0.46173       -0.89222        2.06436
C          3.13068       -1.24840        4.15347
H          5.11841       -0.50779        3.75711
H          1.05993       -1.84684        4.27936
H          3.39334       -1.66169        5.12345
C          2.35358       -0.87658       -1.17113
C          1.56530       -0.98565       -2.32779
C          3.38687       -1.79855       -0.95205
C          1.81472       -1.99598       -3.25711
H          0.74020       -0.29405       -2.48160
C          3.63129       -2.81090       -1.88147
H          3.98350       -1.74188       -0.04628
C          2.84685       -2.91087       -3.03344
H          1.19398       -2.07760       -4.14481
H          4.42845       -3.52686       -1.70125
H          3.03405       -3.70510       -3.75083
O         -5.08261        0.05150        0.82557
C         -6.48910        0.06408        0.72696
H         -6.86501       -0.76963        0.10958
H         -6.88928       -0.03846        1.74042
H         -6.86144        1.00708        0.29116
C         -2.66263        2.59270       -0.19397
C         -2.03777        3.57536       -0.98784
C         -3.74165        2.99773        0.61919
C         -2.49017        4.89296       -1.00399
H         -1.18563        3.28055       -1.59793
C         -4.17796        4.32368        0.62270
H         -4.22804        2.25814        1.24782
C         -3.56252        5.27646       -0.19226
H         -1.99794        5.62607       -1.63904
H         -5.00728        4.61270        1.26455
H         -3.90698        6.30753       -0.18934
N          4.81113        4.00881       -0.79729
