76
O1C(C(O[B]1)(C)C)(C)C.[Cu]/C(=[C]/c1ccccc1)/COC.P(c1ccncc1)(c1ccccc1)c1ccccc1
O         -0.53089        2.47404        1.20000
O         -0.61008        2.46886       -1.09011
C          0.02489        3.75614        0.78032
C         -0.47864        3.86864       -0.70442
C         -0.49233        4.83732        1.72321
C          1.55037        3.63112        0.89219
C         -1.86997        4.49672       -0.83086
C          0.49752        4.54313       -1.66410
B         -0.72118        1.71541        0.05679
Cu        -0.58931       -0.28303       -0.01782
P          1.48090       -0.92127       -0.11036
C         -3.46657        1.27936        0.60882
C         -2.39321       -1.01292        0.06799
C         -2.40510        0.29129        0.23727
H         -1.58336        4.83531        1.77240
H         -0.15687        5.82874        1.39739
H         -0.10749        4.66070        2.73281
H          1.93249        2.85199        0.22582
H          1.81008        3.35561        1.91932
H          2.05094        4.57475        0.65122
H         -2.23313        4.34687       -1.85148
H         -1.84575        5.57083       -0.61694
H         -2.57973        4.01121       -0.15885
H          0.06752        4.55887       -2.67098
H          1.44803        4.00828       -1.71055
H          0.68804        5.57847       -1.35822
H         -3.08882        2.05695        1.28972
H         -4.26253        0.72115        1.13311
C          2.15222       -0.96888        1.60447
C          3.01983       -1.95968        2.07547
C          1.77720        0.05424        2.48813
C          3.48061       -1.87346        3.39236
H          3.32945       -2.78535        1.44269
C          2.30080        0.04130        3.78133
H          1.08662        0.83525        2.18083
H          4.15766       -2.63235        3.78180
H          2.02515        0.82366        4.48648
C          1.80101       -2.58589       -0.81381
C          3.06178       -2.99518       -1.27560
C          0.71794       -3.47647       -0.87082
C          3.23837       -4.28818       -1.76915
H          3.89936       -2.30358       -1.26183
C          0.90079       -4.76951       -1.36328
H         -0.26362       -3.13836       -0.54474
C          2.15988       -5.17687       -1.80946
H          4.21567       -4.60004       -2.12766
H          0.05684       -5.45235       -1.40714
H          2.30035       -6.18188       -2.19830
C          2.62742        0.21451       -0.98550
C          2.11287        0.96288       -2.05519
C          3.97141        0.37341       -0.61392
C          2.94077        1.83865       -2.75894
H          1.05936        0.89151       -2.30699
C          4.79261        1.25861       -1.31409
H          4.37252       -0.17894        0.23125
C          4.27995        1.98811       -2.38971
H          2.53263        2.41597       -3.58369
H          5.83017        1.38186       -1.01578
H          4.91996        2.67902       -2.93174
C         -5.11454        2.70082       -0.29057
H         -5.93881        2.12920        0.16685
H         -4.85358        3.53024        0.38841
H         -5.45434        3.11808       -1.24227
O         -4.00074        1.87828       -0.57132
C         -3.44401       -2.01608        0.06605
C         -3.21906       -3.29967        0.59786
C         -4.71107       -1.73156       -0.48684
C         -4.23150       -4.25720        0.60501
H         -2.24036       -3.52560        1.01406
C         -5.71313       -2.70047       -0.50059
H         -4.88277       -0.74826       -0.91727
C         -5.48152       -3.96425        0.05079
H         -4.04355       -5.23903        1.03303
H         -6.68115       -2.46799       -0.93832
H         -6.26583       -4.71669        0.04280
N          3.14135       -0.89625        4.24081
