37
O1C(C(OB1[Cu][C]1N(C=CN1C)C)(C)C)(C)C
O         -1.96274       -1.13124       -0.15480
O         -1.96275        1.13124        0.15480
C         -3.33758       -0.77225        0.13070
C         -3.33759        0.77225       -0.13070
C         -4.25864       -1.58531       -0.77673
C         -3.59548       -1.13441        1.60085
C         -3.59549        1.13441       -1.60085
C         -4.25865        1.58530        0.77673
B         -1.15745        0.00001       -0.00000
Cu         0.83313        0.00002        0.00000
H         -3.98910       -1.46677       -1.82860
H         -5.30464       -1.28235       -0.64513
H         -4.17724       -2.64854       -0.52693
H         -2.94194       -0.55552        2.26049
H         -3.36929       -2.19541        1.74693
H         -4.63753       -0.95664        1.89025
H         -3.36931        2.19541       -1.74693
H         -4.63754        0.95663       -1.89025
H         -2.94195        0.55552       -2.26049
H         -4.17726        2.64853        0.52693
H         -3.98911        1.46676        1.82860
H         -5.30465        1.28233        0.64513
C          2.80780       -0.00000       -0.00000
C          4.97927        0.67773        0.04494
C          4.97926       -0.67776       -0.04494
H          5.79399        1.38416        0.09180
H          5.79397       -1.38420       -0.09180
N          3.64989       -1.06964       -0.07082
N          3.64990        1.06963        0.07082
C          3.20050       -2.45399       -0.16302
H          3.56766       -3.02851        0.69293
H          2.10923       -2.45748       -0.16052
H          3.56302       -2.90845       -1.09016
C          3.20053        2.45398        0.16302
H          2.10926        2.45749        0.16052
H          3.56306        2.90844        1.09016
H          3.56770        3.02850       -0.69294
