58
O1C(C(O[B]1=C(COC)[C]([Cu][C]1N(C=CN1C)C)c1ccccc1)(C)C)(C)C
O         -1.77374        2.72220       -0.17614
O         -1.77569        0.43156       -0.10132
C         -3.16083        2.32098       -0.18221
C         -3.07829        0.85581        0.37434
C         -3.95883        3.29507        0.68040
C         -3.63967        2.38007       -1.63926
C         -3.03176        0.79601        1.90712
C         -4.14850       -0.09403       -0.15533
B         -0.99035        1.58266       -0.21893
C          1.14058        3.01266       -0.51219
C          1.29015        0.48209       -0.27984
C          0.54314        1.62809       -0.35586
Cu         0.48981       -1.25421       -0.08368
H         -3.52560        3.38828        1.67856
H         -5.00094        2.96781        0.77522
H         -3.95233        4.28695        0.21722
H         -3.08199        1.67069       -2.25914
H         -3.45735        3.38617       -2.02876
H         -4.70942        2.16093       -1.72654
H         -2.74909       -0.21725        2.21021
H         -4.00225        1.03850        2.35321
H         -2.28053        1.48772        2.29996
H         -4.02011       -1.08560        0.29156
H         -4.09308       -0.19821       -1.24154
H         -5.14789        0.26995        0.10904
H          0.47321        3.65348       -1.11108
H          2.11933        2.97781       -1.01582
C         -0.23412       -3.03126        0.07383
C         -1.55620       -4.85487       -0.22552
C         -0.55395       -5.21461        0.61850
H         -2.38655       -5.42007       -0.62031
H         -0.34417       -6.15212        1.11023
C          1.42751       -4.03864        1.63267
H          2.13618       -4.81681        1.33401
H          1.89043       -3.05860        1.50608
H          1.15296       -4.17791        2.68293
C         -2.16032       -2.74872       -1.47448
H         -1.98142       -1.68837       -1.29036
H         -1.89394       -2.99611       -2.50715
H         -3.21777       -2.97122       -1.30828
N          0.24089       -4.09147        0.78663
N         -1.34660       -3.52223       -0.54167
C          2.77542        0.50982       -0.30654
C          3.47922       -0.37222       -1.15222
C          3.53408        1.34206        0.54281
C          4.87219       -0.39802       -1.18018
H          2.90545       -1.03928       -1.79278
C          4.92945        1.29587        0.53467
H          3.01142        2.02598        1.20395
C          5.60776        0.43347       -0.32954
H          5.38652       -1.07730       -1.85663
H          5.49014        1.94417        1.20479
H          6.69456        0.40363       -0.33678
C          1.80378        4.91663        0.71585
H          1.13867        5.58564        0.14308
H          1.88408        5.29280        1.74066
H          2.80293        4.94560        0.24736
O          1.29454        3.60497        0.78640
