83
O1C(C(O[B]1=C(COC)[C]([Cu][P](Oc1ccc(cc1)C#N)(Oc1ccc(cc1)C#N)Oc1ccc(cc1)C#N)c1ccccc1)(C)C)(C)C
O         -4.52966       -2.57529       -0.13309
O         -2.46459       -1.61394       -0.37323
C         -3.59605       -3.66623       -0.33370
C         -2.21497       -2.99527        0.00568
C         -3.98963       -4.82028        0.58344
C         -3.71281       -4.08481       -1.80468
C         -1.89043       -2.99166        1.50436
C         -1.02633       -3.52054       -0.79355
B         -3.84510       -1.39054       -0.26196
C         -5.97933        0.10819       -0.28834
C         -3.62255        1.09493       -0.26831
C         -4.46798        0.01696       -0.28151
Cu        -1.73616        0.66249       -0.23315
P          0.42285        0.46958       -0.10437
H         -4.07146       -4.49365        1.62233
H         -3.25470       -5.63135        0.52372
H         -4.96271       -5.21691        0.27763
H         -3.42558       -3.26273       -2.46806
H         -4.75523       -4.34103       -2.01551
H         -3.08790       -4.95539       -2.03006
H         -1.03120       -2.33559        1.67359
H         -1.64011       -3.99424        1.86609
H         -2.73553       -2.60892        2.08465
H         -0.11612       -3.00190       -0.47926
H         -1.16736       -3.35995       -1.86562
H         -0.88718       -4.59306       -0.61702
H         -6.41018       -0.74578       -0.83629
H         -6.32294        1.03350       -0.77788
O         -6.45467        0.07455        1.06284
C         -7.86359        0.10987        1.13351
H         -8.32104       -0.75175        0.61875
H         -8.13756        0.07565        2.19216
H         -8.27317        1.03267        0.68847
C         -4.08328        2.50030       -0.23307
C         -3.44947        3.45675       -1.05121
C         -5.10553        2.94861        0.62873
C         -3.84588        4.79196       -1.04884
H         -2.63844        3.12508       -1.69707
C         -5.48219        4.29260        0.65229
H         -5.58956        2.23183        1.28434
C         -4.86430        5.21877       -0.19060
H         -3.35141        5.50500       -1.70448
H         -6.26674        4.61658        1.33230
H         -5.16395        6.26350       -0.17256
O          1.18535        1.60803        0.80870
O          1.21950        0.53883       -1.54738
O          0.95619       -0.95206        0.55173
C          2.37707        2.25906        0.50608
C          3.54034        1.91606        1.19534
C          2.37097        3.27036       -0.45686
C          4.72687        2.57836        0.89424
H          3.51271        1.14015        1.94948
C          3.55814        3.92909       -0.75967
H          1.44543        3.52180       -0.96276
C          4.74591        3.58011       -0.09166
H          5.64159        2.31931        1.41698
H          3.57248        4.71075       -1.51179
C          1.98670       -1.12560        1.46750
C          1.77288       -0.78112        2.80376
C          3.19264       -1.68259        1.04167
C          2.79663       -0.96869        3.72694
H          0.81911       -0.36009        3.10224
C          4.21505       -1.87248        1.96652
H          3.32360       -1.95566        0.00233
C          4.02749       -1.50804        3.31132
H          2.65046       -0.69786        4.76722
H          5.16153       -2.29861        1.65083
C          2.26210       -0.28376       -1.96056
C          3.56468        0.21506       -1.98126
C          1.97186       -1.58303       -2.38215
C          4.60087       -0.61326       -2.40277
H          3.75895        1.23236       -1.66676
C          3.00860       -2.41158       -2.79852
H          0.94636       -1.93367       -2.36633
C          4.33177       -1.93387       -2.80242
H          5.62042       -0.24267       -2.41856
H          2.80116       -3.42723       -3.11852
C          5.40283       -2.79362       -3.21246
N          6.27149       -3.49558       -3.53657
C          5.97365        4.24464       -0.41672
N          6.97132        4.77746       -0.68707
C          5.08866       -1.68640        4.25826
N          5.95184       -1.82435        5.02520
