83
O1C(C(OB1[Cu]C(=C=C1[CH]C=CC=C1)COC)(C)C)(C)C.P(Oc1ccc(cc1)C#N)(Oc1ccc(cc1)C#N)Oc1ccc(cc1)C#N
O          3.50440       -2.06567        1.21088
O          2.63199       -2.13324       -0.89771
C          3.31597       -3.47624        0.90293
C          3.18916       -3.45778       -0.65797
C          4.50407       -4.26208        1.44852
C          2.02034       -3.90778        1.60481
C          4.54182       -3.50742       -1.37815
C          2.23775       -4.49775       -1.24548
B          2.93351       -1.31706        0.19480
Cu         2.34090        0.60191        0.32516
P          0.13479        0.38569        0.38977
C          5.18664        1.66800       -0.05724
C          2.71706        2.66209        0.20825
C          3.74967        1.96904        0.08904
H          5.45158       -3.86278        1.08011
H          4.43403       -5.31916        1.16586
H          4.51496       -4.20108        2.54146
H          1.16523       -3.34033        1.22481
H          2.11362       -3.69832        2.67485
H          1.82478       -4.97793        1.47597
H          4.38927       -3.27292       -2.43625
H          5.00544       -4.49702       -1.30351
H          5.22874       -2.76472       -0.96123
H          2.20192       -4.39119       -2.33535
H          1.22325       -4.37742       -0.85749
H          2.57931       -5.51346       -1.01557
H          5.32723        1.02168       -0.94042
H          5.52054        1.08471        0.81720
O          5.91202        2.87669       -0.18191
C          1.75907        3.73670        0.20882
C          1.58110        4.51572       -0.95176
C          0.98224        4.02061        1.34820
C          0.65635        5.56008       -0.96117
H          2.17635        4.29605       -1.83259
C          0.06601        5.06882        1.33106
H          1.10136        3.40677        2.23527
C         -0.10081        5.84354        0.17878
H          0.53112        6.15591       -1.86119
H         -0.52680        5.27704        2.21718
H         -0.82110        6.65646        0.16784
C          7.30130        2.64924       -0.32089
H          7.77683        3.62909       -0.40938
H          7.71903        2.12533        0.55455
H          7.53025        2.05653       -1.22202
O         -0.30423       -1.06851        1.04103
O         -0.38674        0.32540       -1.17209
O         -0.98811        1.40306        1.07878
C         -1.51272       -1.39300        1.64002
C         -2.42580       -2.19514        0.95430
C         -1.76416       -0.95852        2.94385
C         -3.62450       -2.54034        1.57109
H         -2.19587       -2.53868       -0.04594
C         -2.96259       -1.30288        3.55959
H         -1.02756       -0.34775        3.45318
C         -3.90540       -2.08874        2.87226
H         -4.34685       -3.15726        1.04691
H         -3.17564       -0.96575        4.56857
C         -1.07689       -0.71661       -1.77878
C         -0.41392       -1.91726       -2.03889
C         -2.41036       -0.51381       -2.13482
C         -1.12025       -2.95333       -2.64193
H          0.62976       -2.02747       -1.75702
C         -3.11046       -1.55130       -2.74353
H         -2.88483        0.43708       -1.92194
C         -2.47304       -2.78058       -2.99010
H         -0.62817       -3.89959       -2.84255
H         -4.15063       -1.41817       -3.02201
C         -2.11431        1.90687        0.44066
C         -3.37504        1.43435        0.80825
C         -1.96290        2.89612       -0.53377
C         -4.50493        1.95106        0.18019
H         -3.46190        0.66959        1.56999
C         -3.09143        3.40781       -1.16327
H         -0.97181        3.25148       -0.78899
C         -4.36999        2.93517       -0.81449
H         -5.49176        1.59158        0.45270
H         -2.98841        4.17400       -1.92447
C         -5.53148        3.45796       -1.47139
N         -6.47231        3.88099       -2.00882
C         -3.20080       -3.85765       -3.59394
N         -3.79168       -4.73589       -4.07614
C         -5.14790       -2.42934        3.50012
N         -6.15836       -2.69847        4.00929
