77
O1C(C(OB1[Cu]C(=C=C1C=C[CH]C=C1)COC)(C)C)(C)C.P(c1ccc(cc1)F)(c1ccc(cc1)F)c1ccc(cc1)F
O          3.42516        0.54983       -1.09833
O          3.57877       -0.98570        0.58189
C          4.75382        0.71856       -0.53141
C          4.94744       -0.62224        0.25564
C          5.74494        0.95614       -1.66731
C          4.69057        1.95111        0.38145
C          5.50955       -1.75661       -0.61275
C          5.74679       -0.50643        1.55070
B          2.71658       -0.36884       -0.32303
Cu         0.74621       -0.79238       -0.42283
P         -0.76482        0.86271       -0.02331
C          1.99550       -3.58285       -0.63549
C         -0.46005       -2.55776       -0.46468
C          0.77111       -2.76471       -0.54543
H          5.69283        0.16300       -2.41626
H          6.77087        1.01201       -1.28413
H          5.51468        1.90374       -2.16536
H          3.97232        1.79864        1.19292
H          4.35738        2.81216       -0.20734
H          5.66794        2.18835        0.81522
H          5.42100       -2.69919       -0.06305
H          6.56475       -1.59738       -0.86012
H          4.94072       -1.85216       -1.54283
H          5.81142       -1.48759        2.03240
H          5.27137        0.18113        2.25359
H          6.76649       -0.15639        1.35016
H          2.66685       -3.30724        0.19212
H          2.53033       -3.32729       -1.56711
C         -0.29854        2.56523       -0.53714
C         -1.24810        3.59324       -0.67740
C          1.05384        2.84473       -0.78893
C         -0.85602        4.88130       -1.03587
H         -2.30272        3.38561       -0.52178
C          1.45663        4.13072       -1.14908
H          1.79354        2.05388       -0.72926
C          0.49566        5.12838       -1.26082
H         -1.57362        5.68702       -1.15012
H          2.49706        4.36109       -1.35370
C         -2.46586        0.71009       -0.70601
C         -3.58994        0.45026        0.08879
C         -2.62294        0.79282       -2.10082
C         -4.84830        0.28543       -0.49039
H         -3.48908        0.36360        1.16497
C         -3.87443        0.63781       -2.69047
H         -1.75982        0.98730       -2.73274
C         -4.96865        0.38126       -1.86991
H         -5.72454        0.06619        0.10968
H         -4.01249        0.70132       -3.76470
C         -1.01968        0.95618        1.79646
C         -0.74173       -0.19028        2.55940
C         -1.50090        2.10361        2.44631
C         -0.95186       -0.20243        3.93763
H         -0.35094       -1.07892        2.07222
C         -1.71255        2.10734        3.82380
H         -1.70456        3.00622        1.87940
C         -1.43678        0.94987        4.54599
H         -0.73836       -1.07902        4.53998
H         -2.08046        2.98607        4.34299
O          1.66015       -4.96021       -0.60192
C         -1.87999       -2.74138       -0.36624
C         -2.48295       -2.98749        0.88347
C         -2.69603       -2.68290       -1.51293
C         -3.85840       -3.18955        0.97563
H         -1.86139       -3.03142        1.77236
C         -4.06890       -2.88818       -1.41128
H         -2.23956       -2.47470       -2.47523
C         -4.65721       -3.14552       -0.16961
H         -4.30657       -3.38691        1.94604
H         -4.68607       -2.83447       -2.30390
H         -5.72973       -3.30246       -0.09571
C          2.80942       -5.77926       -0.64695
H          2.46669       -6.81670       -0.60969
H          3.38627       -5.62663       -1.57501
H          3.48024       -5.59248        0.20873
F          0.87834        6.37210       -1.61124
F         -1.64030        0.95000        5.87730
F         -6.18123        0.20745       -2.43574
