95
O1C(C(OB1[Cu]C(=C=C1C=C[CH]C=C1)COC)(C)C)(C)C.P(c1ccccc1)(c1ccccc1)CCP(c1ccccc1)c1ccccc1
O         -2.85039        0.01892       -0.96083
O         -3.33126       -0.52936        1.19630
C         -4.25755       -0.33604       -0.95993
C         -4.61207       -0.25911        0.56539
C         -5.00157        0.65585       -1.85138
C         -4.35902       -1.75387       -1.53712
C         -5.03362        1.14674        1.01568
C         -5.62228       -1.29462        1.05137
B         -2.30673       -0.20917        0.30525
Cu        -0.31654       -0.08771        0.68230
P          0.39102        1.42336       -1.10112
C         -1.53230        0.83927        3.36195
C          0.91684        0.35130        2.45119
C         -0.30776        0.49057        2.62143
H         -4.78305        1.68728       -1.56594
H         -6.08500        0.49321       -1.80306
H         -4.68311        0.52451       -2.89088
H         -3.80112       -2.46893       -0.92535
H         -3.91941       -1.75925       -2.54001
H         -5.39906       -2.08929       -1.61513
H         -5.05976        1.17471        2.10975
H         -6.02491        1.41773        0.63622
H         -4.31192        1.89433        0.67275
H         -5.78803       -1.17144        2.12679
H         -5.26194       -2.31179        0.88113
H         -6.58497       -1.17277        0.54075
H         -2.22307       -0.01651        3.34781
H         -2.05402        1.65823        2.83663
C         -0.81869        2.75886       -1.47520
C         -0.82358        3.47105       -2.68462
C         -1.77391        3.07168       -0.49906
C         -1.77867        4.46074       -2.91944
H         -0.07316        3.25877       -3.44218
C         -2.72524        4.06775       -0.72867
H         -1.77525        2.51061        0.43125
C         -2.73334        4.75834       -1.94227
H         -1.77676        5.00221       -3.86192
H         -3.46115        4.29923        0.03713
H         -3.47708        5.52928       -2.12619
C          2.01849        2.28175       -1.22084
C          3.18765        1.52256       -1.41258
C          2.15092        3.65059       -0.93117
C          4.44571        2.11890       -1.34122
H          3.12774        0.45392       -1.58910
C          3.41280        4.24286       -0.84985
H          1.26508        4.25767       -0.76976
C          4.56554        3.48164       -1.05777
H          5.33164        1.50747       -1.49104
H          3.49323        5.30369       -0.62659
H          5.54647        3.94517       -0.99509
O         -1.19988        1.22058        4.68910
C          2.33501        0.23160        2.60473
C          2.87272       -0.81355        3.38605
C          3.21779        1.12927        1.97275
C          4.25235       -0.95744        3.51792
H          2.19527       -1.50646        3.87620
C          4.59468        0.97871        2.11282
H          2.81563        1.93077        1.36472
C          5.12071       -0.06427        2.88110
H          4.65121       -1.76823        4.12230
H          5.25555        1.67576        1.60560
H          6.19637       -0.17936        2.98578
C         -2.34957        1.52465        5.44809
H         -2.01074        1.80495        6.44920
H         -2.91718        2.36672        5.01542
H         -3.02950        0.65951        5.52942
C          0.38679        0.33735       -2.64685
H          1.41453        0.28210       -3.01761
H         -0.21582        0.82106       -3.42254
C         -0.15724       -1.07474       -2.35916
H         -1.23995       -1.03273       -2.22003
H          0.05122       -1.75415       -3.19360
P          0.49492       -1.74348       -0.74201
C          2.27847       -2.04321       -1.10621
C          3.17025       -1.97781       -0.02407
C          2.80270       -2.20912       -2.39993
C          4.54771       -2.06983       -0.22449
H          2.78654       -1.81908        0.97719
C          4.18165       -2.29535       -2.60292
H          2.14072       -2.25499       -3.25955
C          5.05707       -2.22137       -1.51607
H          5.21404       -1.99272        0.62928
H          4.57188       -2.41336       -3.61064
H          6.13049       -2.27626       -1.67773
C         -0.27770       -3.41142       -0.67204
C          0.16897       -4.49306       -1.44622
C         -1.38214       -3.58720        0.17689
C         -0.48766       -5.72282       -1.38512
H          1.03720       -4.37826       -2.08957
C         -2.04206       -4.81671        0.23012
H         -1.72429       -2.75460        0.78599
C         -1.59721       -5.88552       -0.55091
H         -0.13249       -6.55490       -1.98775
H         -2.89812       -4.93922        0.88867
H         -2.10739       -6.84417       -0.50539
