56
O1C(C(OB1[Cu][P](OC(C)C)(OC(C)C)OC(C)C)(C)C)(C)C
O         -3.20864        0.14007        1.48749
O         -2.95661       -0.12285       -0.76783
C         -4.53845        0.28680        0.92219
C         -4.36673       -0.34782       -0.50053
C         -5.53974       -0.42056        1.83228
C         -4.83670        1.79218        0.87964
C         -4.58124       -1.86802       -0.51370
C         -5.18787        0.30725       -1.60851
B         -2.29335        0.03088        0.44874
Cu        -0.30638        0.06638        0.57496
P          1.92857        0.06998        0.26074
H         -5.25500       -1.46020        2.00839
H         -6.54558       -0.39995        1.39561
H         -5.57766        0.08622        2.80211
H         -4.12450        2.30976        0.22968
H         -4.73166        2.20094        1.88937
H         -5.85269        1.99683        0.52387
H         -4.24059       -2.26399       -1.47568
H         -5.63629       -2.13267       -0.38189
H         -3.99611       -2.34779        0.27683
H         -4.98808       -0.19440       -2.56127
H         -4.93232        1.36278       -1.72487
H         -6.26117        0.22645       -1.39829
O          2.37521       -0.87314       -1.00776
O          2.64774        1.45953       -0.20763
O          2.88848       -0.35953        1.48501
C          2.21006        2.14585       -1.41848
H          1.93409        1.38614       -2.16009
C          4.34742       -0.42871        1.34369
H          4.59036       -0.39045        0.27648
C          1.61779       -2.09153       -1.28512
H          1.09475       -2.39817       -0.36812
C          1.01088        3.03512       -1.10466
H          0.15571        2.44263       -0.75831
H          1.27146        3.75669       -0.32276
H          0.70358        3.58437       -2.00184
C          3.42245        2.92120       -1.91391
H          3.18001        3.45659       -2.83833
H          3.73659        3.65200       -1.16042
H          4.25730        2.24127       -2.10907
C          4.77492       -1.76813        1.92490
H          4.30461       -2.59202        1.37860
H          5.86298       -1.88101        1.85972
H          4.47891       -1.83731        2.97719
C          4.94640        0.77367        2.05987
H          4.58750        1.69982        1.60387
H          4.65909        0.76592        3.11692
H          6.04048        0.74662        1.99562
C          0.59315       -1.79543       -2.37299
H         -0.13766       -1.05601       -2.02595
H          1.09576       -1.41057       -3.26760
H          0.04846       -2.70751       -2.64156
C          2.63669       -3.15343       -1.67236
H          2.13457       -4.10262       -1.88854
H          3.18831       -2.83916       -2.56523
H          3.35429       -3.31340       -0.86121
