77
O1C(C(O[B]1)(C)C)(C)C.[Cu]/C(=[C]/COC)/c1ccccc1.P(OC(C)C)(OC(C)C)OC(C)C
O         -1.06496        2.28828       -1.34629
O         -1.29211        2.31035        0.93434
C         -2.34155        2.93338       -1.08687
C         -2.20509        3.33440        0.42885
C         -2.50259        4.10600       -2.05233
C         -3.42731        1.87804       -1.34675
C         -1.52131        4.69085        0.64075
C         -3.50066        3.27159        1.23195
B         -0.61219        1.78070       -0.14617
Cu         0.26145       -0.10911       -0.02150
P         -0.97039       -1.83011        0.09546
C          1.78078        2.97890       -0.14176
C          2.12726        0.39837       -0.17153
C          1.42087        1.50940       -0.13171
H         -1.65840        4.79678       -1.98999
H         -3.42614        4.65830       -1.84157
H         -2.55552        3.72892       -3.07885
H         -3.30081        1.01123       -0.68954
H         -3.33207        1.52340       -2.37783
H         -4.43322        2.28995       -1.21019
H         -1.25968        4.79455        1.69887
H         -2.17938        5.52093        0.36127
H         -0.60090        4.76280        0.05530
H         -3.29908        3.53185        2.27664
H         -3.94130        2.27330        1.21078
H         -4.23195        3.98619        0.83594
H          1.31770        3.48631        0.72435
H          1.37577        3.45982       -1.05025
O          3.18421        3.10694       -0.09380
C          3.51881        0.00041       -0.26416
C          4.50062        0.45399        0.63928
C          3.90597       -0.93624       -1.24765
C          5.81174       -0.01349        0.56152
H          4.22259        1.19120        1.38644
C          5.22583       -1.37356       -1.34480
H          3.14747       -1.31182       -1.93131
C          6.18662       -0.92307       -0.43299
H          6.55075        0.34620        1.27519
H          5.50247       -2.08220       -2.12330
H          7.21258       -1.27779       -0.49501
C          3.60741        4.45135       -0.14270
H          4.69997        4.44402       -0.09947
H          3.28952        4.94792       -1.07496
H          3.21853        5.03675        0.70848
O         -2.28688       -1.76382       -0.84780
O         -1.48435       -2.33303        1.56715
O         -0.32947       -3.23967       -0.41605
C         -1.81039       -1.45925        2.69095
H         -2.19937       -2.17175        3.42617
C         -0.55892       -0.79027        3.25926
H         -0.80262       -0.30536        4.21260
H          0.22980       -1.52973        3.43561
H         -0.17877       -0.01825        2.58162
C         -3.14755       -2.92157       -1.09247
H         -2.94682       -3.67234       -0.32002
C         -2.81246       -3.48569       -2.46728
H         -1.76675       -3.80364       -2.49937
H         -3.45401       -4.34690       -2.69226
H         -2.97291       -2.72147       -3.23609
C          0.52190       -4.09774        0.39915
H         -0.07365       -4.39901        1.27062
C          0.81586       -5.31128       -0.47722
H          1.39807       -5.01078       -1.35697
H          1.39500       -6.05155        0.08586
H         -0.11645       -5.77821       -0.81772
C          1.79326       -3.38337        0.85957
H          2.41404       -4.08201        1.43314
H          2.37259       -3.01735        0.00628
H          1.56768       -2.52354        1.49938
C         -2.90668       -0.45849        2.33183
H         -3.25239        0.04617        3.24200
H         -2.52150        0.30766        1.65487
H         -3.75895       -0.96535        1.86736
C         -4.58266       -2.42324       -0.97349
H         -4.76701       -1.62535       -1.70149
H         -5.28804       -3.24072       -1.16549
H         -4.77229       -2.02585        0.02885
