77
O1C(C(O[B]1)(C)C)(C)C.[Cu]/C(=[C]/COC)/c1ccccc1.P(OC(C)C)(OC(C)C)OC(C)C
O         -1.10362        2.33652       -1.34691
O         -1.27142        2.11476        0.92772
C         -2.37588        2.94495       -0.98530
C         -2.20436        3.17660        0.55986
C         -2.56223        4.21340       -1.81177
C         -3.46427        1.91817       -1.32888
C         -1.53044        4.50967        0.90480
C         -3.47898        3.01020        1.38158
B         -0.62180        1.69999       -0.22066
Cu         0.34347       -0.08383       -0.28698
P         -0.93755       -1.77007       -0.11232
C          1.72636        2.98433       -0.25758
C          2.20642        0.40880       -0.16657
C          1.47490        1.50278       -0.19455
H         -1.71459        4.89320       -1.70136
H         -3.47641        4.73933       -1.51264
H         -2.64888        3.95170       -2.87094
H         -3.32052        0.98798       -0.77123
H         -3.39260        1.67553       -2.39338
H         -4.46722        2.30892       -1.12616
H         -1.23974        4.49676        1.95984
H         -2.20790        5.35453        0.74055
H         -0.62961        4.66541        0.30607
H         -3.25507        3.15805        2.44313
H         -3.90853        2.01426        1.26312
H         -4.22837        3.75260        1.08362
H          1.29104        3.47601        0.63133
H          1.22706        3.41524       -1.14117
O          3.11988        3.22206       -0.31147
C          3.60013        0.00719       -0.08413
C          4.54380        0.69617        0.70408
C          4.02353       -1.15146       -0.76445
C          5.85533        0.23597        0.80640
H          4.23471        1.60038        1.21572
C          5.34306       -1.59171       -0.68547
H          3.29480       -1.69433       -1.36014
C          6.26506       -0.90498        0.10956
H          6.56703        0.77776        1.42528
H          5.64969       -2.48040       -1.23243
H          7.29094       -1.25595        0.18733
C          3.42672        4.59694       -0.38389
H          4.51618        4.68037       -0.42014
H          3.00172        5.06472       -1.28780
H          3.05418        5.14859        0.49634
O         -0.39988       -3.21751       -0.63004
O         -2.36011       -1.69392       -0.87940
O         -1.28481       -2.14744        1.44392
C         -1.41451       -1.09268        2.44554
C         -0.94189       -1.69644        3.75902
C         -2.85645       -0.60417        2.47710
H         -0.75952       -0.25862        2.16359
H          0.09672       -2.03064        3.67269
H         -1.00457       -0.95331        4.56144
H         -1.56443       -2.55674        4.02959
H         -3.13524       -0.18933        1.50521
H         -3.53430       -1.43111        2.71809
H         -2.97431        0.18306        3.22914
C          0.95392       -3.62878       -0.25393
C          1.61913       -4.15013       -1.51817
C          0.85268       -4.65937        0.86249
H          1.49502       -2.73913        0.09658
H          1.64880       -3.36753       -2.28296
H          2.64553       -4.46609       -1.30152
H          1.06505       -5.00717       -1.91776
H          0.33642       -4.23247        1.72654
H          0.29274       -5.53713        0.52028
H          1.85400       -4.98174        1.16996
C         -3.31596       -2.80419       -0.87724
C         -3.19577       -3.54465       -2.20273
C         -4.68773       -2.18538       -0.64888
H         -3.06353       -3.47249       -0.04659
H         -2.18750       -3.94865       -2.31907
H         -3.91656       -4.36977       -2.24253
H         -3.40149       -2.86181       -3.03448
H         -4.72393       -1.67062        0.31570
H         -4.90935       -1.45941       -1.43900
H         -5.46176       -2.96091       -0.66120
