35
O1C(C(OB1[Cu][P](C)(C)C)(C)C)(C)C
O         -1.65719        1.06494        0.41094
O         -1.65843       -1.06567       -0.41199
C         -3.03513        0.78197        0.05284
C         -3.03575       -0.78170       -0.05231
C         -3.95167        1.36169        1.12791
C         -3.29494        1.47728       -1.29129
C         -3.29454       -1.47682        1.29212
C         -3.95392       -1.36076       -1.12635
B         -0.86133       -0.00065       -0.00100
Cu         1.13273       -0.00082       -0.00265
P          3.41478       -0.00040       -0.00080
H         -3.67982        1.00054        2.12224
H         -4.99831        1.09874        0.93201
H         -3.86904        2.45364        1.13264
H         -2.64287        1.06930       -2.06964
H         -3.07011        2.54328       -1.18592
H         -4.33736        1.37043       -1.61188
H         -3.07061       -2.54298        1.18649
H         -4.33651       -1.36921        1.61391
H         -2.64127       -1.06930        2.06970
H         -3.87207       -2.45276       -1.13119
H         -3.68292       -0.99979       -2.12098
H         -5.00014       -1.09706       -0.92927
C          4.21584       -0.11824        1.66095
H          3.89258        0.72450        2.27994
H          3.89677       -1.04233        2.15299
H          5.30914       -0.11009        1.58251
C          4.22714       -1.37634       -0.93008
H          5.31988       -1.30553       -0.88088
H          3.90867       -2.33541       -0.50982
H          3.91068       -1.34379       -1.97729
C          4.22294        1.49702       -0.72301
H          5.31590        1.42357       -0.68294
H          3.90764        1.61325       -1.76462
H          3.90073        2.38503       -0.17031
