56
O1C(C(O[B]1=C(COC)[C]([Cu][P](C)(C)C)c1ccccc1)(C)C)(C)C
O          1.42288       -2.65494       -0.35677
O          1.62732       -0.39428       -0.04072
C          2.83415       -2.36124       -0.46525
C          2.93313       -0.95812        0.23504
C          3.62310       -3.47830        0.21240
C          3.16475       -2.30584       -1.96295
C          3.06368       -1.05739        1.76049
C          4.00561       -0.03154       -0.33085
B          0.74186       -1.45991       -0.22684
C         -1.56011       -2.62907       -0.44784
C         -1.37866       -0.09849       -0.19647
C         -0.79174       -1.33263       -0.29125
Cu        -0.25104        1.45809       -0.02317
P          1.03425        3.24985        0.19546
H          3.28222       -3.64192        1.23695
H          4.69405       -3.24430        0.22820
H          3.48529       -4.41270       -0.34083
H          2.60891       -1.50058       -2.45390
H          2.86630       -3.25218       -2.42378
H          4.23525       -2.15469       -2.13885
H          2.90827       -0.06499        2.19621
H          4.05260       -1.41881        2.06153
H          2.30257       -1.72689        2.17200
H          4.01517        0.91260        0.22473
H          3.82184        0.19436       -1.38393
H          4.99899       -0.48483       -0.23786
H         -0.98807       -3.33901       -1.06703
H         -2.53596       -2.46572       -0.93149
O         -1.76144       -3.21201        0.84791
C         -2.43979       -4.44557        0.77664
H         -1.88099       -5.18795        0.18143
H         -2.54549       -4.82067        1.79937
H         -3.44407       -4.33691        0.33191
C         -2.84945        0.08819       -0.19428
C         -3.42832        1.09700       -0.99041
C         -3.70985       -0.66958        0.62728
C         -4.80428        1.31472       -1.00235
H         -2.77040        1.70761       -1.60608
C         -5.08553       -0.43213        0.63651
H         -3.28247       -1.44348        1.25707
C         -5.64249        0.55275       -0.18213
H         -5.22384        2.08952       -1.64021
H         -5.72665       -1.02523        1.28506
H         -6.71475        0.73199       -0.17553
C          0.21207        4.90060        0.28584
H         -0.37185        5.06505       -0.62503
H         -0.47606        4.91608        1.13663
H          0.94362        5.70917        0.39699
C          2.09847        3.24788        1.70500
H          2.75533        4.12464        1.73735
H          1.46342        3.23819        2.59619
H          2.70542        2.33802        1.71226
C          2.26347        3.48213       -1.16282
H          2.87196        2.57770       -1.24986
H          1.73354        3.62851       -2.10913
H          2.91380        4.34424       -0.97536
