80
O1C(C(OB1/C(=C(\[Cu][P](c1ccc(cc1)C#N)(c1ccc(cc1)C#N)c1ccc(cc1)C#N)/c1ccccc1)/COC)(C)C)(C)C
O         -3.90811       -1.62721       -0.61313
O         -1.82012       -1.26979        0.26373
C         -3.23995       -2.91092       -0.63467
C         -2.08698       -2.69620        0.40627
C         -4.24775       -3.99688       -0.27095
C         -2.71808       -3.11907       -2.06329
C         -2.54386       -2.92017        1.85374
C         -0.81200       -3.48386        0.12461
B         -2.99695       -0.67587       -0.20380
C         -4.73122        1.22573       -0.44846
C         -2.25358        1.74914       -0.19829
C         -3.27463        0.84210       -0.27758
Cu        -0.45440        1.09542       -0.08381
P          1.56115        0.18289       -0.00173
H         -4.75408       -3.77109        0.66999
H         -3.75394       -4.97147       -0.18332
H         -5.00904       -4.06871       -1.05403
H         -1.97624       -2.35613       -2.31999
H         -3.55574       -3.02953       -2.76112
H         -2.26165       -4.10641       -2.18974
H         -1.76177       -2.57516        2.53731
H         -2.72950       -3.97980        2.05632
H         -3.45564       -2.35480        2.06772
H         -0.05918       -3.26735        0.88899
H         -0.38765       -3.23150       -0.84735
H         -1.01791       -4.55994        0.14787
H         -5.24381        0.48944       -1.08801
H         -4.83928        2.21640       -0.91604
C          2.98756        1.27044       -0.38614
C          2.86160        2.62758       -0.04655
C          4.17004        0.81412       -0.98802
C          3.90773        3.51398       -0.28261
H          1.93517        2.98926        0.39313
C          5.21951        1.69539       -1.23296
H          4.27082       -0.22787       -1.27615
C          5.09344        3.04880       -0.87640
H          3.81084        4.56232       -0.02032
H          6.13458        1.34556       -1.69966
C          1.94614       -0.54834        1.63855
C          3.24502       -0.66184        2.15514
C          0.85304       -1.01514        2.38907
C          3.45628       -1.25449        3.39752
H          4.09385       -0.28204        1.59449
C          1.05850       -1.61237        3.62872
H         -0.15349       -0.91126        1.99256
C          2.36308       -1.73727        4.13668
H          4.45966       -1.34452        3.80086
H          0.21644       -1.97578        4.20893
C          1.69444       -1.22933       -1.17041
C          0.91114       -1.17314       -2.33469
C          2.48252       -2.36244       -0.92271
C          0.91880       -2.22636       -3.24361
H          0.27007       -0.31316       -2.51106
C          2.49322       -3.42376       -1.82359
H          3.07080       -2.43141       -0.01281
C          1.70879       -3.36026       -2.98766
H          0.30488       -2.18698       -4.13725
H          3.09469       -4.30552       -1.62829
O         -5.35584        1.23211        0.84221
C         -6.73269        1.53183        0.76676
H         -7.27999        0.79309        0.15725
H         -7.12764        1.51122        1.78696
H         -6.91106        2.53159        0.33567
C         -2.46993        3.21537       -0.20545
C         -1.65431        4.04476       -1.00098
C         -3.43192        3.83726        0.61718
C         -1.81361        5.42882       -1.00914
H         -0.89165        3.57706       -1.62176
C         -3.57375        5.22586        0.62828
H         -4.06089        3.21596        1.24734
C         -2.77346        6.02856       -0.18775
H         -1.18151        6.04281       -1.64658
H         -4.31757        5.68273        1.27701
H         -2.88932        7.10927       -0.17890
C          6.17516        3.95655       -1.12687
N          7.05489        4.68967       -1.32853
C          1.70130       -4.46150       -3.90603
N          1.69366       -5.35654       -4.64826
C          2.58061       -2.35419        5.41295
N          2.75906       -2.85895        6.44519
