80
O1C(C(OB1[Cu]C(=C=C1C=C[CH]C=C1)COC)(C)C)(C)C.P(c1ccc(cc1)C#N)(c1ccc(cc1)C#N)c1ccc(cc1)C#N
O          3.48307        0.21785       -1.20484
O          3.53472       -1.41564        0.38707
C          4.82738        0.25646       -0.64499
C          4.92616       -1.13767        0.06350
C          5.82347        0.48348       -1.77812
C          4.86151        1.43646        0.33578
C          5.39168       -2.26026       -0.87380
C          5.74208       -1.15483        1.35290
B          2.71765       -0.68681       -0.47032
Cu         0.71941       -0.95460       -0.56469
P         -0.59608        0.81846       -0.03289
C          1.71943       -3.82664       -0.88708
C         -0.64297       -2.60814       -0.65206
C          0.56405       -2.91793       -0.75212
H          5.70547       -0.25928       -2.56992
H          6.85340        0.43978       -1.40481
H          5.66289        1.47294       -2.21873
H          4.14162        1.29071        1.14715
H          4.58853        2.35237       -0.19878
H          5.85714        1.57646        0.76962
H          5.23742       -3.22289       -0.37598
H          6.45345       -2.16693       -1.12571
H          4.80925       -2.26017       -1.80042
H          5.73737       -2.16363        1.77825
H          5.32604       -0.47443        2.09909
H          6.78317       -0.87090        1.15888
H          2.42080       -3.63256       -0.06119
H          2.26054       -3.58183       -1.81788
C         -0.01411        2.49281       -0.53449
C         -0.86662        3.61151       -0.54635
C          1.32963        2.64519       -0.90753
C         -0.38232        4.86572       -0.90225
H         -1.91554        3.50223       -0.28791
C          1.82007        3.89900       -1.26606
H          1.99324        1.78706       -0.93468
C          0.96921        5.01523       -1.26068
H         -1.04003        5.72893       -0.90879
H          2.85911        4.01307       -1.55831
C         -2.36391        0.85169       -0.54319
C         -3.40683        0.52286        0.33341
C         -2.65982        1.11080       -1.89362
C         -4.71925        0.45847       -0.12385
H         -3.19881        0.30236        1.37433
C         -3.96856        1.05896       -2.35603
H         -1.86104        1.36122       -2.58680
C         -5.00807        0.72685       -1.46997
H         -5.52045        0.18509        0.55401
H         -4.19277        1.26212       -3.39823
C         -0.67732        0.87167        1.80949
C         -0.55908       -0.34778        2.49734
C         -0.86987        2.05377        2.53945
C         -0.64924       -0.39178        3.88532
H         -0.38881       -1.26603        1.94265
C         -0.95492        2.02125        3.92825
H         -0.94653        3.00726        2.02778
C         -0.84935        0.79593        4.60777
H         -0.55738       -1.33568        4.41265
H         -1.10222        2.93718        4.49130
O          1.27084       -5.16995       -0.89287
C         -2.07323       -2.67774       -0.54346
C         -2.67955       -2.97262        0.69405
C         -2.89331       -2.47348       -1.67036
C         -4.06530       -3.08309        0.79153
H         -2.05314       -3.13453        1.56618
C         -4.27649       -2.58937       -1.56391
H         -2.43148       -2.23393       -2.62304
C         -4.86963       -2.89689       -0.33570
H         -4.51740       -3.32323        1.75025
H         -4.89767       -2.43197       -2.44118
H         -5.94965       -2.98513       -0.25965
C          2.34691       -6.08158       -0.98427
H          1.91706       -7.08640       -0.97505
H          2.92022       -5.94602       -1.91674
H          3.04220       -5.98065       -0.13412
C          1.47283        6.30674       -1.62884
N          1.88113        7.35450       -1.92542
C         -0.94186        0.75932        6.03847
N         -1.02042        0.72959        7.19833
C         -6.35480        0.62227       -1.94724
N         -7.44686        0.52166       -2.33519
