50
O1C(C(O[B]1)(C)C)(C)C.[Cu]/C(=[C]/c1ccccc1)/COC.PC
O          1.94022       -0.63484       -1.19035
O          1.95083        0.34591        0.87747
C          3.27811       -0.85745       -0.66343
C          3.10728       -0.54399        0.87186
C          3.68020       -2.29435       -0.98377
C          4.19843        0.13033       -1.39088
C          2.72356       -1.76522        1.71388
C          4.28129        0.19272        1.51215
B          1.24704        0.15112       -0.29928
Cu        -0.34620        1.40211       -0.46227
P          0.40760        3.42477       -0.22410
C         -0.70019       -1.87572       -0.80582
C         -1.93917        0.30232       -0.15697
C         -0.88758       -0.44586       -0.40687
H          2.94296       -3.00322       -0.60114
H          4.65775       -2.53275       -0.54901
H          3.74645       -2.42438       -2.06877
H          3.89854        1.16314       -1.18715
H          4.11545       -0.03760       -2.46893
H          5.24568        0.00304       -1.09695
H          2.47715       -1.42931        2.72614
H          3.54783       -2.48416        1.77867
H          1.83834       -2.25222        1.29974
H          4.05509        0.39483        2.56402
H          4.47988        1.14738        1.01904
H          5.19124       -0.41709        1.47118
H          0.00099       -1.96931       -1.64480
H         -1.68571       -2.25965       -1.12120
C         -0.05194       -4.00175       -0.02562
H         -0.99770       -4.47125       -0.34173
H          0.68526       -4.13122       -0.83527
H          0.31298       -4.50781        0.87259
O         -0.23034       -2.63964        0.30681
C         -3.34431       -0.01784        0.02365
C         -4.35116        0.85537       -0.42760
C         -3.73187       -1.21219        0.66933
C         -5.69776        0.53288       -0.27190
H         -4.05402        1.78587       -0.90411
C         -5.07978       -1.51887        0.84638
H         -2.95894       -1.88025        1.04077
C         -6.06870       -0.65299        0.36982
H         -6.46208        1.21393       -0.63846
H         -5.36108       -2.43893        1.35333
H         -7.11952       -0.89563        0.50518
H         -0.42203        4.57321       -0.23076
H          1.35413        3.87570       -1.17284
C          1.32378        3.62376        1.37027
H          2.01502        2.78150        1.45625
H          1.85659        4.57614        1.42908
H          0.60363        3.55339        2.19058
